* SPICE NETLIST
***************************************

.SUBCKT esdscr A K PD SX
.ENDS
***************************************
.SUBCKT subc SUBCON SUB
.ENDS
***************************************
.SUBCKT nfettw G S D B PI sx
.ENDS
***************************************
.SUBCKT dgnfettw G S D B PI sx
.ENDS
***************************************
.SUBCKT nfet33tw G S D B PI sx
.ENDS
***************************************
.SUBCKT hvtnfet33tw G S D B PI sx
.ENDS
***************************************
.SUBCKT lvtnfettw G S D B PI sx
.ENDS
***************************************
.SUBCKT lpnfettw G S D B PI sx
.ENDS
***************************************
.SUBCKT nfettw_rf G S D B PI sx
.ENDS
***************************************
.SUBCKT dgnfettw_rf G S D B PI sx
.ENDS
***************************************
.SUBCKT hvtnfet33tw_rf G S D B PI sx
.ENDS
***************************************
.SUBCKT lvtnfettw_rf G S D B PI sx
.ENDS
***************************************
.SUBCKT nfet33tw_rf G S D B PI sx
.ENDS
***************************************
.SUBCKT lpnfettw_rf G S D B PI sx
.ENDS
***************************************
.SUBCKT sblkndres D S G
.ENDS
***************************************
.SUBCKT ncap G S B D
.ENDS
***************************************
.SUBCKT dgncap G S B D
.ENDS
***************************************
.SUBCKT diffhavar ANODE1 ANODE2 CATHODE BULK
.ENDS
***************************************
.SUBCKT diffncap GA GB NW SX
.ENDS
***************************************
.SUBCKT esdnsh_base d g s b
.ENDS
***************************************
.SUBCKT esdpsh_base d g s b
.ENDS
***************************************
.SUBCKT bondpad in gp sub
.ENDS
***************************************
.SUBCKT devicepad pad
.ENDS
***************************************
.SUBCKT efuse IN OUT
.ENDS
***************************************
.SUBCKT indp out in bulk
.ENDS
***************************************
.SUBCKT ind out in bulk
.ENDS
***************************************
.SUBCKT inds out in bulk
.ENDS
***************************************
.SUBCKT symindp outpr outse ct BULK
.ENDS
***************************************
.SUBCKT symind outpr outse ct BULK
.ENDS
***************************************
.SUBCKT rfline in out bulk
.ENDS
***************************************
.SUBCKT singlewire VA VB VSHIELD
.ENDS
***************************************
.SUBCKT coupledwires VA1 VA2 VB1 VB2 VSHIELD
.ENDS
***************************************
.SUBCKT singlecpw va vb vshield
.ENDS
***************************************
.SUBCKT coupledcpw va1 va2 vb1 vb2 vshield
.ENDS
***************************************
.SUBCKT corrPoint cp
.ENDS
***************************************
.SUBCKT FILL1TR
** N=2 EP=0 IP=0 FDC=0
*.CALIBRE ISOLATED NETS: VSS VDD
.ENDS
***************************************
.SUBCKT FILL2TR
** N=4 EP=0 IP=0 FDC=0
*.CALIBRE ISOLATED NETS: VSS VDD
.ENDS
***************************************
.SUBCKT ICV_1
** N=2 EP=0 IP=4 FDC=0
.ENDS
***************************************
.SUBCKT FILL4TR
** N=8 EP=0 IP=0 FDC=0
*.CALIBRE ISOLATED NETS: VSS VDD
.ENDS
***************************************
.SUBCKT ICV_2
** N=2 EP=0 IP=4 FDC=0
.ENDS
***************************************
.SUBCKT ICV_3
** N=2 EP=0 IP=4 FDC=0
.ENDS
***************************************
.SUBCKT ICV_4
** N=2 EP=0 IP=4 FDC=0
.ENDS
***************************************
.SUBCKT FILL8TR
** N=18 EP=0 IP=0 FDC=0
*.CALIBRE ISOLATED NETS: VSS VDD
.ENDS
***************************************
.SUBCKT XOR2X1TR A B Y VDD VSS
** N=30 EP=5 IP=0 FDC=10
M0 VSS A 6 VSS nfet L=1.2e-07 W=2.2e-07 m=1 par=1 nf=1 ngcon=1 psp=0 $X=450 $Y=1040 $D=97
M1 8 B VSS VSS nfet L=1.2e-07 W=5.4e-07 m=1 par=1 nf=1 ngcon=1 psp=0 $X=1010 $Y=720 $D=97
M2 Y A 8 VSS nfet L=1.2e-07 W=5.4e-07 m=1 par=1 nf=1 ngcon=1 psp=0 $X=1490 $Y=720 $D=97
M3 7 6 Y VSS nfet L=1.2e-07 W=5.6e-07 m=1 par=1 nf=1 ngcon=1 psp=0 $X=1970 $Y=710 $D=97
M4 VSS 8 7 VSS nfet L=1.2e-07 W=5.6e-07 m=1 par=1 nf=1 ngcon=1 psp=0 $X=2630 $Y=710 $D=97
M5 VDD A 6 VDD pfet L=1.2e-07 W=3e-07 m=1 par=1 nf=1 ngcon=1 psp=0 $X=450 $Y=2000 $D=189
M6 8 B VDD VDD pfet L=1.2e-07 W=7.8e-07 m=1 par=1 nf=1 ngcon=1 psp=0 $X=1010 $Y=2000 $D=189
M7 Y 6 8 VDD pfet L=1.2e-07 W=7.8e-07 m=1 par=1 nf=1 ngcon=1 psp=0 $X=1490 $Y=2000 $D=189
M8 7 A Y VDD pfet L=1.2e-07 W=7.6e-07 m=1 par=1 nf=1 ngcon=1 psp=0 $X=1970 $Y=2240 $D=189
M9 VDD 8 7 VDD pfet L=1.2e-07 W=7.6e-07 m=1 par=1 nf=1 ngcon=1 psp=0 $X=2630 $Y=2240 $D=189
.ENDS
***************************************
.SUBCKT ICV_5
** N=2 EP=0 IP=4 FDC=0
.ENDS
***************************************
.SUBCKT ICV_6
** N=2 EP=0 IP=4 FDC=0
.ENDS
***************************************
.SUBCKT ICV_7
** N=2 EP=0 IP=4 FDC=0
.ENDS
***************************************
.SUBCKT CLKBUFX2TR A VSS VDD Y
** N=18 EP=4 IP=0 FDC=4
M0 VSS A 5 VSS nfet L=1.2e-07 W=2e-07 m=1 par=1 nf=1 ngcon=1 psp=0 $X=460 $Y=1110 $D=97
M1 Y 5 VSS VSS nfet L=1.2e-07 W=4.8e-07 m=1 par=1 nf=1 ngcon=1 psp=0 $X=1040 $Y=830 $D=97
M2 VDD A 5 VDD pfet L=1.2e-07 W=5.4e-07 m=1 par=1 nf=1 ngcon=1 psp=0 $X=580 $Y=1910 $D=189
M3 Y 5 VDD VDD pfet L=1.2e-07 W=1.3e-06 m=1 par=1 nf=1 ngcon=1 psp=0 $X=1070 $Y=1910 $D=189
.ENDS
***************************************
.SUBCKT ICV_8
** N=2 EP=0 IP=4 FDC=0
.ENDS
***************************************
.SUBCKT AND2X2TR A B VDD VSS Y
** N=26 EP=5 IP=0 FDC=6
M0 7 A 6 VSS nfet L=1.2e-07 W=4.8e-07 m=1 par=1 nf=1 ngcon=1 psp=0 $X=470 $Y=830 $D=97
M1 VSS B 7 VSS nfet L=1.2e-07 W=4.8e-07 m=1 par=1 nf=1 ngcon=1 psp=0 $X=810 $Y=830 $D=97
M2 Y 6 VSS VSS nfet L=1.2e-07 W=9.2e-07 m=1 par=1 nf=1 ngcon=1 psp=0 $X=1440 $Y=390 $D=97
M3 6 A VDD VDD pfet L=1.2e-07 W=5e-07 m=1 par=1 nf=1 ngcon=1 psp=0 $X=470 $Y=1910 $D=189
M4 VDD B 6 VDD pfet L=1.2e-07 W=5e-07 m=1 par=1 nf=1 ngcon=1 psp=0 $X=910 $Y=1910 $D=189
M5 Y 6 VDD VDD pfet L=1.2e-07 W=1.28e-06 m=1 par=1 nf=1 ngcon=1 psp=0 $X=1440 $Y=1910 $D=189
.ENDS
***************************************
.SUBCKT FILL16TR
** N=36 EP=0 IP=0 FDC=0
*.CALIBRE ISOLATED NETS: VSS VDD
.ENDS
***************************************
.SUBCKT DFFSX1TR D CK SN VSS Q VDD
** N=83 EP=6 IP=0 FDC=31
M0 16 D VSS VSS nfet L=1.2e-07 W=2e-07 m=1 par=1 nf=1 ngcon=1 psp=0 $X=330 $Y=950 $D=97
M1 7 8 16 VSS nfet L=1.2e-07 W=2e-07 m=1 par=1 nf=1 ngcon=1 psp=0 $X=650 $Y=950 $D=97
M2 18 10 7 VSS nfet L=1.2e-07 W=2.2e-07 m=1 par=1 nf=1 ngcon=1 psp=0 $X=1210 $Y=930 $D=97
M3 VSS 9 18 VSS nfet L=1.2e-07 W=2.2e-07 m=1 par=1 nf=1 ngcon=1 psp=0 $X=1530 $Y=930 $D=97
M4 8 CK VSS VSS nfet L=1.2e-07 W=3e-07 m=1 par=1 nf=1 ngcon=1 psp=0 $X=1970 $Y=530 $D=97
M5 11 7 9 VSS nfet L=1.2e-07 W=3e-07 m=1 par=1 nf=1 ngcon=1 psp=0 $X=2580 $Y=1010 $D=97
M6 10 8 VSS VSS nfet L=1.2e-07 W=2e-07 m=1 par=1 nf=1 ngcon=1 psp=0 $X=3440 $Y=1020 $D=97
M7 12 10 9 VSS nfet L=1.2e-07 W=2e-07 m=1 par=1 nf=1 ngcon=1 psp=0 $X=4460 $Y=700 $D=97
M8 20 8 12 VSS nfet L=1.2e-07 W=2e-07 m=1 par=1 nf=1 ngcon=1 psp=0 $X=5020 $Y=1110 $D=97
M9 11 13 20 VSS nfet L=1.2e-07 W=2e-07 m=1 par=1 nf=1 ngcon=1 psp=0 $X=5340 $Y=1110 $D=97
M10 VSS SN 11 VSS nfet L=1.2e-07 W=4e-07 m=1 par=1 nf=1 ngcon=1 psp=0 $X=5840 $Y=480 $D=97
M11 13 12 VSS VSS nfet L=1.2e-07 W=2e-07 m=1 par=1 nf=1 ngcon=1 psp=0 $X=6280 $Y=1110 $D=97
M12 14 13 VSS VSS nfet L=1.2e-07 W=2e-07 m=1 par=1 nf=1 ngcon=1 psp=0 $X=6600 $Y=390 $D=97
M13 VSS 13 Q VSS nfet L=1.2e-07 W=4.6e-07 m=1 par=1 nf=1 ngcon=1 psp=0 $X=7370 $Y=850 $D=97
M14 QN 14 VSS VSS nfet L=1.2e-07 W=4.6e-07 m=1 par=1 nf=1 ngcon=1 psp=0 $X=7870 $Y=850 $D=97
M15 17 D VDD VDD pfet L=1.2e-07 W=2.8e-07 m=1 par=1 nf=1 ngcon=1 psp=0 $X=330 $Y=2180 $D=189
M16 7 10 17 VDD pfet L=1.2e-07 W=2.8e-07 m=1 par=1 nf=1 ngcon=1 psp=0 $X=650 $Y=2180 $D=189
M17 19 8 7 VDD pfet L=1.2e-07 W=2.8e-07 m=1 par=1 nf=1 ngcon=1 psp=0 $X=1210 $Y=2180 $D=189
M18 VDD 9 19 VDD pfet L=1.2e-07 W=2.8e-07 m=1 par=1 nf=1 ngcon=1 psp=0 $X=1530 $Y=2180 $D=189
M19 8 CK VDD VDD pfet L=1.2e-07 W=4.2e-07 m=1 par=1 nf=1 ngcon=1 psp=0 $X=1970 $Y=2470 $D=189
M20 VDD 7 9 VDD pfet L=1.2e-07 W=2.8e-07 m=1 par=1 nf=1 ngcon=1 psp=0 $X=2580 $Y=1910 $D=189
M21 10 8 VDD VDD pfet L=1.2e-07 W=2.8e-07 m=1 par=1 nf=1 ngcon=1 psp=0 $X=3020 $Y=2110 $D=189
M22 12 8 9 VDD pfet L=1.2e-07 W=2.8e-07 m=1 par=1 nf=1 ngcon=1 psp=0 $X=4040 $Y=1910 $D=189
M23 VDD SN 9 VDD pfet L=1.2e-07 W=2.8e-07 m=1 par=1 nf=1 ngcon=1 psp=0 $X=4120 $Y=2850 $D=189
M24 12 SN VDD VDD pfet L=1.2e-07 W=2.8e-07 m=1 par=1 nf=1 ngcon=1 psp=0 $X=4680 $Y=2610 $D=189
M25 21 10 12 VDD pfet L=1.2e-07 W=2.8e-07 m=1 par=1 nf=1 ngcon=1 psp=0 $X=5240 $Y=2610 $D=189
M26 VDD 13 21 VDD pfet L=1.2e-07 W=2.8e-07 m=1 par=1 nf=1 ngcon=1 psp=0 $X=5560 $Y=2610 $D=189
M27 13 12 VDD VDD pfet L=1.2e-07 W=2.8e-07 m=1 par=1 nf=1 ngcon=1 psp=0 $X=6390 $Y=1910 $D=189
M28 14 13 VDD VDD pfet L=1.2e-07 W=2.8e-07 m=1 par=1 nf=1 ngcon=1 psp=0 $X=6430 $Y=2860 $D=189
M29 VDD 13 Q VDD pfet L=1.2e-07 W=6.4e-07 m=1 par=1 nf=1 ngcon=1 psp=0 $X=7370 $Y=2340 $D=189
M30 QN 14 VDD VDD pfet L=1.2e-07 W=6.4e-07 m=1 par=1 nf=1 ngcon=1 psp=0 $X=7870 $Y=1940 $D=189
.ENDS
***************************************
.SUBCKT DFFSX2TR D CK SN VSS Q VDD QN
** N=88 EP=7 IP=0 FDC=31
M0 16 D VSS VSS nfet L=1.2e-07 W=2e-07 m=1 par=1 nf=1 ngcon=1 psp=0 $X=330 $Y=950 $D=97
M1 8 9 16 VSS nfet L=1.2e-07 W=2e-07 m=1 par=1 nf=1 ngcon=1 psp=0 $X=650 $Y=950 $D=97
M2 18 11 8 VSS nfet L=1.2e-07 W=2.2e-07 m=1 par=1 nf=1 ngcon=1 psp=0 $X=1210 $Y=930 $D=97
M3 VSS 10 18 VSS nfet L=1.2e-07 W=2.2e-07 m=1 par=1 nf=1 ngcon=1 psp=0 $X=1530 $Y=930 $D=97
M4 9 CK VSS VSS nfet L=1.2e-07 W=3e-07 m=1 par=1 nf=1 ngcon=1 psp=0 $X=1970 $Y=530 $D=97
M5 12 8 10 VSS nfet L=1.2e-07 W=3e-07 m=1 par=1 nf=1 ngcon=1 psp=0 $X=2490 $Y=1010 $D=97
M6 11 9 VSS VSS nfet L=1.2e-07 W=2e-07 m=1 par=1 nf=1 ngcon=1 psp=0 $X=3350 $Y=1020 $D=97
M7 13 11 10 VSS nfet L=1.2e-07 W=2e-07 m=1 par=1 nf=1 ngcon=1 psp=0 $X=4370 $Y=700 $D=97
M8 20 9 13 VSS nfet L=1.2e-07 W=2e-07 m=1 par=1 nf=1 ngcon=1 psp=0 $X=4930 $Y=1050 $D=97
M9 12 14 20 VSS nfet L=1.2e-07 W=2e-07 m=1 par=1 nf=1 ngcon=1 psp=0 $X=5250 $Y=1050 $D=97
M10 VSS SN 12 VSS nfet L=1.2e-07 W=4e-07 m=1 par=1 nf=1 ngcon=1 psp=0 $X=5690 $Y=850 $D=97
M11 14 13 VSS VSS nfet L=1.2e-07 W=2.6e-07 m=1 par=1 nf=1 ngcon=1 psp=0 $X=6130 $Y=990 $D=97
M12 15 14 VSS VSS nfet L=1.2e-07 W=2.2e-07 m=1 par=1 nf=1 ngcon=1 psp=0 $X=6450 $Y=390 $D=97
M13 VSS 14 Q VSS nfet L=1.2e-07 W=9.2e-07 m=1 par=1 nf=1 ngcon=1 psp=0 $X=7310 $Y=390 $D=97
M14 QN 15 VSS VSS nfet L=1.2e-07 W=9.2e-07 m=1 par=1 nf=1 ngcon=1 psp=0 $X=7870 $Y=390 $D=97
M15 17 D VDD VDD pfet L=1.2e-07 W=2.8e-07 m=1 par=1 nf=1 ngcon=1 psp=0 $X=330 $Y=2180 $D=189
M16 8 11 17 VDD pfet L=1.2e-07 W=2.8e-07 m=1 par=1 nf=1 ngcon=1 psp=0 $X=650 $Y=2180 $D=189
M17 19 9 8 VDD pfet L=1.2e-07 W=2.8e-07 m=1 par=1 nf=1 ngcon=1 psp=0 $X=1210 $Y=2180 $D=189
M18 VDD 10 19 VDD pfet L=1.2e-07 W=2.8e-07 m=1 par=1 nf=1 ngcon=1 psp=0 $X=1530 $Y=2180 $D=189
M19 9 CK VDD VDD pfet L=1.2e-07 W=4.2e-07 m=1 par=1 nf=1 ngcon=1 psp=0 $X=1970 $Y=2470 $D=189
M20 VDD 8 10 VDD pfet L=1.2e-07 W=2.8e-07 m=1 par=1 nf=1 ngcon=1 psp=0 $X=2580 $Y=1910 $D=189
M21 11 9 VDD VDD pfet L=1.2e-07 W=2.8e-07 m=1 par=1 nf=1 ngcon=1 psp=0 $X=3020 $Y=2110 $D=189
M22 13 9 10 VDD pfet L=1.2e-07 W=2.8e-07 m=1 par=1 nf=1 ngcon=1 psp=0 $X=4040 $Y=1910 $D=189
M23 VDD SN 10 VDD pfet L=1.2e-07 W=2.8e-07 m=1 par=1 nf=1 ngcon=1 psp=0 $X=4120 $Y=2850 $D=189
M24 13 SN VDD VDD pfet L=1.2e-07 W=2.8e-07 m=1 par=1 nf=1 ngcon=1 psp=0 $X=4680 $Y=2610 $D=189
M25 21 11 13 VDD pfet L=1.2e-07 W=2.8e-07 m=1 par=1 nf=1 ngcon=1 psp=0 $X=5240 $Y=2610 $D=189
M26 VDD 14 21 VDD pfet L=1.2e-07 W=2.8e-07 m=1 par=1 nf=1 ngcon=1 psp=0 $X=5560 $Y=2610 $D=189
M27 14 13 VDD VDD pfet L=1.2e-07 W=3.4e-07 m=1 par=1 nf=1 ngcon=1 psp=0 $X=6390 $Y=1910 $D=189
M28 15 14 VDD VDD pfet L=1.2e-07 W=3e-07 m=1 par=1 nf=1 ngcon=1 psp=0 $X=6430 $Y=2910 $D=189
M29 VDD 14 Q VDD pfet L=1.2e-07 W=1.28e-06 m=1 par=1 nf=1 ngcon=1 psp=0 $X=7310 $Y=1930 $D=189
M30 QN 15 VDD VDD pfet L=1.2e-07 W=1.28e-06 m=1 par=1 nf=1 ngcon=1 psp=0 $X=7870 $Y=1930 $D=189
.ENDS
***************************************
.SUBCKT DFFQX1TR D CK VSS VDD Q
** N=63 EP=5 IP=0 FDC=25
M0 12 D VSS VSS nfet L=1.2e-07 W=2e-07 m=1 par=1 nf=1 ngcon=1 psp=0 $X=390 $Y=1010 $D=97
M1 6 9 12 VSS nfet L=1.2e-07 W=2e-07 m=1 par=1 nf=1 ngcon=1 psp=0 $X=710 $Y=1010 $D=97
M2 15 7 6 VSS nfet L=1.2e-07 W=2e-07 m=1 par=1 nf=1 ngcon=1 psp=0 $X=1270 $Y=1010 $D=97
M3 VSS 8 15 VSS nfet L=1.2e-07 W=2e-07 m=1 par=1 nf=1 ngcon=1 psp=0 $X=1590 $Y=1010 $D=97
M4 9 CK VSS VSS nfet L=1.2e-07 W=2.8e-07 m=1 par=1 nf=1 ngcon=1 psp=0 $X=2030 $Y=960 $D=97
M5 8 6 VSS VSS nfet L=1.2e-07 W=2e-07 m=1 par=1 nf=1 ngcon=1 psp=0 $X=2890 $Y=1090 $D=97
M6 VSS 9 7 VSS nfet L=1.2e-07 W=2e-07 m=1 par=1 nf=1 ngcon=1 psp=0 $X=3610 $Y=710 $D=97
M7 10 7 8 VSS nfet L=1.2e-07 W=2e-07 m=1 par=1 nf=1 ngcon=1 psp=0 $X=4490 $Y=1110 $D=97
M8 17 9 10 VSS nfet L=1.2e-07 W=2e-07 m=1 par=1 nf=1 ngcon=1 psp=0 $X=5150 $Y=1000 $D=97
M9 VSS 11 Q VSS nfet L=1.2e-07 W=2.8e-07 m=1 par=1 nf=1 ngcon=1 psp=0 $X=5470 $Y=390 $D=97
M10 VSS 11 17 VSS nfet L=1.2e-07 W=2e-07 m=1 par=1 nf=1 ngcon=1 psp=0 $X=5470 $Y=1000 $D=97
M11 11 10 VSS VSS nfet L=1.2e-07 W=2e-07 m=1 par=1 nf=1 ngcon=1 psp=0 $X=5910 $Y=1110 $D=97
M12 Q 11 VSS VSS nfet L=1.2e-07 W=2e-07 m=1 par=1 nf=1 ngcon=1 psp=0 $X=6230 $Y=520 $D=97
M13 13 D VDD VDD pfet L=1.2e-07 W=2.8e-07 m=1 par=1 nf=1 ngcon=1 psp=0 $X=390 $Y=2390 $D=189
M14 6 7 13 VDD pfet L=1.2e-07 W=2.8e-07 m=1 par=1 nf=1 ngcon=1 psp=0 $X=780 $Y=2390 $D=189
M15 14 9 6 VDD pfet L=1.2e-07 W=2.8e-07 m=1 par=1 nf=1 ngcon=1 psp=0 $X=1260 $Y=2390 $D=189
M16 VDD 8 14 VDD pfet L=1.2e-07 W=2.8e-07 m=1 par=1 nf=1 ngcon=1 psp=0 $X=1580 $Y=2390 $D=189
M17 VDD CK 9 VDD pfet L=1.2e-07 W=3.8e-07 m=1 par=1 nf=1 ngcon=1 psp=0 $X=2440 $Y=2450 $D=189
M18 8 6 VDD VDD pfet L=1.2e-07 W=2.8e-07 m=1 par=1 nf=1 ngcon=1 psp=0 $X=2890 $Y=2450 $D=189
M19 VDD 9 7 VDD pfet L=1.2e-07 W=2.8e-07 m=1 par=1 nf=1 ngcon=1 psp=0 $X=3780 $Y=1990 $D=189
M20 10 9 8 VDD pfet L=1.2e-07 W=2.8e-07 m=1 par=1 nf=1 ngcon=1 psp=0 $X=4640 $Y=2290 $D=189
M21 16 7 10 VDD pfet L=1.2e-07 W=2.8e-07 m=1 par=1 nf=1 ngcon=1 psp=0 $X=5080 $Y=2290 $D=189
M22 VDD 11 16 VDD pfet L=1.2e-07 W=2.8e-07 m=1 par=1 nf=1 ngcon=1 psp=0 $X=5400 $Y=2290 $D=189
M23 11 10 VDD VDD pfet L=1.2e-07 W=2.8e-07 m=1 par=1 nf=1 ngcon=1 psp=0 $X=5860 $Y=1950 $D=189
M24 Q 11 VDD VDD pfet L=1.2e-07 W=6.4e-07 m=1 par=1 nf=1 ngcon=1 psp=0 $X=6260 $Y=2570 $D=189
.ENDS
***************************************
.SUBCKT DFFRX1TR D CK RN QN VDD VSS Q
** N=85 EP=7 IP=0 FDC=33
M0 15 8 9 VSS nfet L=1.2e-07 W=2e-07 m=1 par=1 nf=1 ngcon=1 psp=0 $X=460 $Y=1090 $D=97
M1 17 D 15 VSS nfet L=1.2e-07 W=2e-07 m=1 par=1 nf=1 ngcon=1 psp=0 $X=780 $Y=1090 $D=97
M2 VSS RN 17 VSS nfet L=1.2e-07 W=2e-07 m=1 par=1 nf=1 ngcon=1 psp=0 $X=1100 $Y=1090 $D=97
M3 VSS CK 8 VSS nfet L=1.2e-07 W=3e-07 m=1 par=1 nf=1 ngcon=1 psp=0 $X=2080 $Y=840 $D=97
M4 11 8 VSS VSS nfet L=1.2e-07 W=2e-07 m=1 par=1 nf=1 ngcon=1 psp=0 $X=2590 $Y=940 $D=97
M5 19 11 9 VSS nfet L=1.2e-07 W=2e-07 m=1 par=1 nf=1 ngcon=1 psp=0 $X=3610 $Y=1010 $D=97
M6 20 10 19 VSS nfet L=1.2e-07 W=2e-07 m=1 par=1 nf=1 ngcon=1 psp=0 $X=3930 $Y=1010 $D=97
M7 VSS RN 20 VSS nfet L=1.2e-07 W=2e-07 m=1 par=1 nf=1 ngcon=1 psp=0 $X=4250 $Y=1010 $D=97
M8 10 9 VSS VSS nfet L=1.2e-07 W=2e-07 m=1 par=1 nf=1 ngcon=1 psp=0 $X=4710 $Y=870 $D=97
M9 12 11 10 VSS nfet L=1.2e-07 W=2e-07 m=1 par=1 nf=1 ngcon=1 psp=0 $X=5270 $Y=870 $D=97
M10 22 8 12 VSS nfet L=1.2e-07 W=2e-07 m=1 par=1 nf=1 ngcon=1 psp=0 $X=5830 $Y=1110 $D=97
M11 VSS 14 22 VSS nfet L=1.2e-07 W=2e-07 m=1 par=1 nf=1 ngcon=1 psp=0 $X=6150 $Y=1110 $D=97
M12 23 RN VSS VSS nfet L=1.2e-07 W=3.2e-07 m=1 par=1 nf=1 ngcon=1 psp=0 $X=6590 $Y=990 $D=97
M13 14 12 23 VSS nfet L=1.2e-07 W=3.2e-07 m=1 par=1 nf=1 ngcon=1 psp=0 $X=6910 $Y=990 $D=97
M14 13 14 VSS VSS nfet L=1.2e-07 W=2e-07 m=1 par=1 nf=1 ngcon=1 psp=0 $X=7230 $Y=390 $D=97
M15 VSS 13 QN VSS nfet L=1.2e-07 W=4.6e-07 m=1 par=1 nf=1 ngcon=1 psp=0 $X=8190 $Y=850 $D=97
M16 Q 14 VSS VSS nfet L=1.2e-07 W=4.6e-07 m=1 par=1 nf=1 ngcon=1 psp=0 $X=8670 $Y=850 $D=97
M17 16 D VDD VDD pfet L=1.2e-07 W=2.8e-07 m=1 par=1 nf=1 ngcon=1 psp=0 $X=460 $Y=2640 $D=189
M18 9 11 16 VDD pfet L=1.2e-07 W=2.8e-07 m=1 par=1 nf=1 ngcon=1 psp=0 $X=780 $Y=2640 $D=189
M19 VDD RN 9 VDD pfet L=1.2e-07 W=2.8e-07 m=1 par=1 nf=1 ngcon=1 psp=0 $X=1260 $Y=2640 $D=189
M20 VDD CK 8 VDD pfet L=1.2e-07 W=4.2e-07 m=1 par=1 nf=1 ngcon=1 psp=0 $X=1780 $Y=1910 $D=189
M21 11 8 VDD VDD pfet L=1.2e-07 W=2.8e-07 m=1 par=1 nf=1 ngcon=1 psp=0 $X=2290 $Y=1930 $D=189
M22 18 8 9 VDD pfet L=1.2e-07 W=2.8e-07 m=1 par=1 nf=1 ngcon=1 psp=0 $X=2850 $Y=2410 $D=189
M23 VDD 10 18 VDD pfet L=1.2e-07 W=2.8e-07 m=1 par=1 nf=1 ngcon=1 psp=0 $X=3170 $Y=2410 $D=189
M24 10 9 VDD VDD pfet L=1.2e-07 W=2.8e-07 m=1 par=1 nf=1 ngcon=1 psp=0 $X=3710 $Y=2410 $D=189
M25 12 8 10 VDD pfet L=1.2e-07 W=2.8e-07 m=1 par=1 nf=1 ngcon=1 psp=0 $X=4540 $Y=2660 $D=189
M26 21 11 12 VDD pfet L=1.2e-07 W=2.8e-07 m=1 par=1 nf=1 ngcon=1 psp=0 $X=5270 $Y=2660 $D=189
M27 VDD 14 21 VDD pfet L=1.2e-07 W=2.8e-07 m=1 par=1 nf=1 ngcon=1 psp=0 $X=5600 $Y=2660 $D=189
M28 14 RN VDD VDD pfet L=1.2e-07 W=2.8e-07 m=1 par=1 nf=1 ngcon=1 psp=0 $X=6060 $Y=2590 $D=189
M29 VDD 12 14 VDD pfet L=1.2e-07 W=2.8e-07 m=1 par=1 nf=1 ngcon=1 psp=0 $X=6620 $Y=2880 $D=189
M30 13 14 VDD VDD pfet L=1.2e-07 W=2.8e-07 m=1 par=1 nf=1 ngcon=1 psp=0 $X=7230 $Y=2240 $D=189
M31 VDD 13 QN VDD pfet L=1.2e-07 W=6.4e-07 m=1 par=1 nf=1 ngcon=1 psp=0 $X=8170 $Y=1910 $D=189
M32 Q 14 VDD VDD pfet L=1.2e-07 W=6.4e-07 m=1 par=1 nf=1 ngcon=1 psp=0 $X=8670 $Y=1910 $D=189
.ENDS
***************************************
.SUBCKT ICV_9 1 2 3 4 5
** N=5 EP=5 IP=7 FDC=6
X1 3 4 2 1 5 AND2X2TR $T=1200 0 0 0 $X=860 $Y=-280
.ENDS
***************************************
.SUBCKT ICV_10 1 2 3 4 5
** N=5 EP=5 IP=7 FDC=6
X1 3 4 2 1 5 AND2X2TR $T=1600 0 0 0 $X=1260 $Y=-280
.ENDS
***************************************
.SUBCKT NAND2BX1TR AN B VSS Y VDD
** N=22 EP=5 IP=0 FDC=6
M0 VSS AN 6 VSS nfet L=1.2e-07 W=2e-07 m=1 par=1 nf=1 ngcon=1 psp=0 $X=560 $Y=1050 $D=97
M1 7 B VSS VSS nfet L=1.2e-07 W=6e-07 m=1 par=1 nf=1 ngcon=1 psp=0 $X=1100 $Y=650 $D=97
M2 Y 6 7 VSS nfet L=1.2e-07 W=6e-07 m=1 par=1 nf=1 ngcon=1 psp=0 $X=1420 $Y=650 $D=97
M3 VDD AN 6 VDD pfet L=1.2e-07 W=2.8e-07 m=1 par=1 nf=1 ngcon=1 psp=0 $X=420 $Y=2040 $D=189
M4 Y B VDD VDD pfet L=1.2e-07 W=6.4e-07 m=1 par=1 nf=1 ngcon=1 psp=0 $X=940 $Y=2040 $D=189
M5 VDD 6 Y VDD pfet L=1.2e-07 W=6.4e-07 m=1 par=1 nf=1 ngcon=1 psp=0 $X=1420 $Y=2040 $D=189
.ENDS
***************************************
.SUBCKT INVX2TR A VSS VDD Y
** N=14 EP=4 IP=0 FDC=2
M0 Y A VSS VSS nfet L=1.2e-07 W=9.2e-07 m=1 par=1 nf=1 ngcon=1 psp=0 $X=520 $Y=390 $D=97
M1 Y A VDD VDD pfet L=1.2e-07 W=1.28e-06 m=1 par=1 nf=1 ngcon=1 psp=0 $X=520 $Y=1910 $D=189
.ENDS
***************************************
.SUBCKT CLKAND2X2TR A B VSS VDD Y
** N=23 EP=5 IP=0 FDC=6
M0 7 A 6 VSS nfet L=1.2e-07 W=2e-07 m=1 par=1 nf=1 ngcon=1 psp=0 $X=560 $Y=990 $D=97
M1 VSS B 7 VSS nfet L=1.2e-07 W=2e-07 m=1 par=1 nf=1 ngcon=1 psp=0 $X=880 $Y=990 $D=97
M2 Y 6 VSS VSS nfet L=1.2e-07 W=4.8e-07 m=1 par=1 nf=1 ngcon=1 psp=0 $X=1440 $Y=830 $D=97
M3 6 A VDD VDD pfet L=1.2e-07 W=5.6e-07 m=1 par=1 nf=1 ngcon=1 psp=0 $X=410 $Y=1910 $D=189
M4 VDD B 6 VDD pfet L=1.2e-07 W=5.6e-07 m=1 par=1 nf=1 ngcon=1 psp=0 $X=890 $Y=1910 $D=189
M5 Y 6 VDD VDD pfet L=1.2e-07 W=1.3e-06 m=1 par=1 nf=1 ngcon=1 psp=0 $X=1440 $Y=1910 $D=189
.ENDS
***************************************
.SUBCKT NOR2BX1TR AN B VDD Y VSS
** N=25 EP=5 IP=0 FDC=6
M0 VSS AN 6 VSS nfet L=1.2e-07 W=2.2e-07 m=1 par=1 nf=1 ngcon=1 psp=0 $X=460 $Y=1090 $D=97
M1 Y B VSS VSS nfet L=1.2e-07 W=4.6e-07 m=1 par=1 nf=1 ngcon=1 psp=0 $X=1040 $Y=850 $D=97
M2 VSS 6 Y VSS nfet L=1.2e-07 W=4.6e-07 m=1 par=1 nf=1 ngcon=1 psp=0 $X=1520 $Y=850 $D=97
M3 VDD AN 6 VDD pfet L=1.2e-07 W=3e-07 m=1 par=1 nf=1 ngcon=1 psp=0 $X=410 $Y=1940 $D=189
M4 7 B VDD VDD pfet L=1.2e-07 W=8.4e-07 m=1 par=1 nf=1 ngcon=1 psp=0 $X=1040 $Y=1940 $D=189
M5 Y 6 7 VDD pfet L=1.2e-07 W=8.4e-07 m=1 par=1 nf=1 ngcon=1 psp=0 $X=1360 $Y=1940 $D=189
.ENDS
***************************************
.SUBCKT ICV_11
** N=2 EP=0 IP=4 FDC=0
.ENDS
***************************************
.SUBCKT ICV_12
** N=2 EP=0 IP=4 FDC=0
.ENDS
***************************************
.SUBCKT XNOR2X1TR B A Y VDD VSS
** N=31 EP=5 IP=0 FDC=10
M0 VSS A 6 VSS nfet L=1.2e-07 W=2.2e-07 m=1 par=1 nf=1 ngcon=1 psp=0 $X=450 $Y=1090 $D=97
M1 8 B VSS VSS nfet L=1.2e-07 W=5.6e-07 m=1 par=1 nf=1 ngcon=1 psp=0 $X=970 $Y=750 $D=97
M2 Y 6 8 VSS nfet L=1.2e-07 W=5.6e-07 m=1 par=1 nf=1 ngcon=1 psp=0 $X=1450 $Y=750 $D=97
M3 7 A Y VSS nfet L=1.2e-07 W=5.6e-07 m=1 par=1 nf=1 ngcon=1 psp=0 $X=1930 $Y=750 $D=97
M4 VSS 8 7 VSS nfet L=1.2e-07 W=5.6e-07 m=1 par=1 nf=1 ngcon=1 psp=0 $X=2570 $Y=750 $D=97
M5 VDD A 6 VDD pfet L=1.2e-07 W=3e-07 m=1 par=1 nf=1 ngcon=1 psp=0 $X=420 $Y=2170 $D=189
M6 8 B VDD VDD pfet L=1.2e-07 W=7.2e-07 m=1 par=1 nf=1 ngcon=1 psp=0 $X=950 $Y=2170 $D=189
M7 Y A 8 VDD pfet L=1.2e-07 W=7.8e-07 m=1 par=1 nf=1 ngcon=1 psp=0 $X=1430 $Y=2290 $D=189
M8 7 6 Y VDD pfet L=1.2e-07 W=7.8e-07 m=1 par=1 nf=1 ngcon=1 psp=0 $X=1910 $Y=2100 $D=189
M9 VDD 8 7 VDD pfet L=1.2e-07 W=7.8e-07 m=1 par=1 nf=1 ngcon=1 psp=0 $X=2570 $Y=2100 $D=189
.ENDS
***************************************
.SUBCKT DFFHQX1TR D CK VSS VDD Q
** N=81 EP=5 IP=0 FDC=29
M0 VSS D 7 VSS nfet L=1.2e-07 W=2e-07 m=1 par=1 nf=1 ngcon=1 psp=0 $X=460 $Y=1060 $D=97
M1 VSS CK 9 VSS nfet L=1.2e-07 W=2e-07 m=1 par=1 nf=1 ngcon=1 psp=0 $X=1480 $Y=860 $D=97
M2 6 CK VSS VSS nfet L=1.2e-07 W=2.8e-07 m=1 par=1 nf=1 ngcon=1 psp=0 $X=1920 $Y=780 $D=97
M3 VSS 6 11 VSS nfet L=1.2e-07 W=3e-07 m=1 par=1 nf=1 ngcon=1 psp=0 $X=2810 $Y=500 $D=97
M4 16 9 VSS VSS nfet L=1.2e-07 W=4.2e-07 m=1 par=1 nf=1 ngcon=1 psp=0 $X=3260 $Y=650 $D=97
M5 8 7 16 VSS nfet L=1.2e-07 W=4.2e-07 m=1 par=1 nf=1 ngcon=1 psp=0 $X=3580 $Y=650 $D=97
M6 18 11 8 VSS nfet L=1.2e-07 W=2e-07 m=1 par=1 nf=1 ngcon=1 psp=0 $X=4140 $Y=910 $D=97
M7 VSS 10 18 VSS nfet L=1.2e-07 W=2e-07 m=1 par=1 nf=1 ngcon=1 psp=0 $X=4460 $Y=910 $D=97
M8 10 8 VSS VSS nfet L=1.2e-07 W=5e-07 m=1 par=1 nf=1 ngcon=1 psp=0 $X=4930 $Y=720 $D=97
M9 12 11 10 VSS nfet L=1.2e-07 W=4.8e-07 m=1 par=1 nf=1 ngcon=1 psp=0 $X=5470 $Y=720 $D=97
M10 20 9 12 VSS nfet L=1.2e-07 W=2e-07 m=1 par=1 nf=1 ngcon=1 psp=0 $X=6090 $Y=570 $D=97
M11 VSS 13 20 VSS nfet L=1.2e-07 W=2e-07 m=1 par=1 nf=1 ngcon=1 psp=0 $X=6410 $Y=570 $D=97
M12 VSS 12 13 VSS nfet L=1.2e-07 W=2e-07 m=1 par=1 nf=1 ngcon=1 psp=0 $X=6970 $Y=1080 $D=97
M13 Q 12 VSS VSS nfet L=1.2e-07 W=4.6e-07 m=1 par=1 nf=1 ngcon=1 psp=0 $X=7470 $Y=820 $D=97
M14 VDD D 7 VDD pfet L=1.2e-07 W=2.8e-07 m=1 par=1 nf=1 ngcon=1 psp=0 $X=410 $Y=1910 $D=189
M15 6 CK VDD VDD pfet L=1.2e-07 W=2.8e-07 m=1 par=1 nf=1 ngcon=1 psp=0 $X=1040 $Y=1910 $D=189
M16 14 CK VDD VDD pfet L=1.2e-07 W=7e-07 m=1 par=1 nf=1 ngcon=1 psp=0 $X=1040 $Y=2370 $D=189
M17 9 11 14 VDD pfet L=1.2e-07 W=5e-07 m=1 par=1 nf=1 ngcon=1 psp=0 $X=1440 $Y=2500 $D=189
M18 VDD 6 11 VDD pfet L=1.2e-07 W=8.4e-07 m=1 par=1 nf=1 ngcon=1 psp=0 $X=2490 $Y=1910 $D=189
M19 15 11 VDD VDD pfet L=1.2e-07 W=5.8e-07 m=1 par=1 nf=1 ngcon=1 psp=0 $X=3050 $Y=1910 $D=189
M20 8 7 15 VDD pfet L=1.2e-07 W=5.8e-07 m=1 par=1 nf=1 ngcon=1 psp=0 $X=3370 $Y=1910 $D=189
M21 17 9 8 VDD pfet L=1.2e-07 W=2.8e-07 m=1 par=1 nf=1 ngcon=1 psp=0 $X=3890 $Y=2110 $D=189
M22 VDD 10 17 VDD pfet L=1.2e-07 W=2.8e-07 m=1 par=1 nf=1 ngcon=1 psp=0 $X=4210 $Y=2110 $D=189
M23 10 8 VDD VDD pfet L=1.2e-07 W=9.6e-07 m=1 par=1 nf=1 ngcon=1 psp=0 $X=4740 $Y=2110 $D=189
M24 12 9 10 VDD pfet L=1.2e-07 W=9.6e-07 m=1 par=1 nf=1 ngcon=1 psp=0 $X=5250 $Y=2110 $D=189
M25 19 11 12 VDD pfet L=1.2e-07 W=2.6e-07 m=1 par=1 nf=1 ngcon=1 psp=0 $X=5770 $Y=2290 $D=189
M26 VDD 13 19 VDD pfet L=1.2e-07 W=2.6e-07 m=1 par=1 nf=1 ngcon=1 psp=0 $X=6090 $Y=2290 $D=189
M27 VDD 12 13 VDD pfet L=1.2e-07 W=2.8e-07 m=1 par=1 nf=1 ngcon=1 psp=0 $X=7040 $Y=2280 $D=189
M28 Q 12 VDD VDD pfet L=1.2e-07 W=7.4e-07 m=1 par=1 nf=1 ngcon=1 psp=0 $X=7440 $Y=2280 $D=189
.ENDS
***************************************
.SUBCKT DFFHQX4TR CK D Q VSS VDD
** N=104 EP=5 IP=0 FDC=41
M0 VSS CK 6 VSS nfet L=1.2e-07 W=5.4e-07 m=1 par=1 nf=1 ngcon=1 psp=0 $X=410 $Y=770 $D=97
M1 9 CK VSS VSS nfet L=1.2e-07 W=4.8e-07 m=1 par=1 nf=1 ngcon=1 psp=0 $X=850 $Y=830 $D=97
M2 VSS D 7 VSS nfet L=1.2e-07 W=4.4e-07 m=1 par=1 nf=1 ngcon=1 psp=0 $X=1830 $Y=870 $D=97
M3 11 6 VSS VSS nfet L=1.2e-07 W=7.2e-07 m=1 par=1 nf=1 ngcon=1 psp=0 $X=2430 $Y=590 $D=97
M4 15 9 VSS VSS nfet L=1.2e-07 W=6e-07 m=1 par=1 nf=1 ngcon=1 psp=0 $X=3450 $Y=710 $D=97
M5 8 7 15 VSS nfet L=1.2e-07 W=6e-07 m=1 par=1 nf=1 ngcon=1 psp=0 $X=3770 $Y=710 $D=97
M6 17 7 8 VSS nfet L=1.2e-07 W=6e-07 m=1 par=1 nf=1 ngcon=1 psp=0 $X=4410 $Y=500 $D=97
M7 VSS 9 17 VSS nfet L=1.2e-07 W=6e-07 m=1 par=1 nf=1 ngcon=1 psp=0 $X=4730 $Y=500 $D=97
M8 20 11 8 VSS nfet L=1.2e-07 W=2e-07 m=1 par=1 nf=1 ngcon=1 psp=0 $X=5610 $Y=900 $D=97
M9 VSS 10 20 VSS nfet L=1.2e-07 W=2e-07 m=1 par=1 nf=1 ngcon=1 psp=0 $X=5930 $Y=900 $D=97
M10 10 8 VSS VSS nfet L=1.2e-07 W=9.2e-07 m=1 par=1 nf=1 ngcon=1 psp=0 $X=6330 $Y=390 $D=97
M11 VSS 8 10 VSS nfet L=1.2e-07 W=6.4e-07 m=1 par=1 nf=1 ngcon=1 psp=0 $X=6810 $Y=670 $D=97
M12 13 11 10 VSS nfet L=1.2e-07 W=7e-07 m=1 par=1 nf=1 ngcon=1 psp=0 $X=7820 $Y=600 $D=97
M13 10 11 13 VSS nfet L=1.2e-07 W=7e-07 m=1 par=1 nf=1 ngcon=1 psp=0 $X=8300 $Y=600 $D=97
M14 21 9 13 VSS nfet L=1.2e-07 W=2e-07 m=1 par=1 nf=1 ngcon=1 psp=0 $X=9280 $Y=600 $D=97
M15 VSS 12 21 VSS nfet L=1.2e-07 W=2e-07 m=1 par=1 nf=1 ngcon=1 psp=0 $X=9620 $Y=600 $D=97
M16 VSS 13 12 VSS nfet L=1.2e-07 W=2e-07 m=1 par=1 nf=1 ngcon=1 psp=0 $X=10180 $Y=1110 $D=97
M17 Q 13 VSS VSS nfet L=1.2e-07 W=9.2e-07 m=1 par=1 nf=1 ngcon=1 psp=0 $X=10580 $Y=390 $D=97
M18 VSS 13 Q VSS nfet L=1.2e-07 W=9.2e-07 m=1 par=1 nf=1 ngcon=1 psp=0 $X=11060 $Y=390 $D=97
M19 VDD CK 6 VDD pfet L=1.2e-07 W=5.4e-07 m=1 par=1 nf=1 ngcon=1 psp=0 $X=410 $Y=1910 $D=189
M20 14 CK VDD VDD pfet L=1.2e-07 W=1.3e-06 m=1 par=1 nf=1 ngcon=1 psp=0 $X=850 $Y=1910 $D=189
M21 9 11 14 VDD pfet L=1.2e-07 W=1.3e-06 m=1 par=1 nf=1 ngcon=1 psp=0 $X=1170 $Y=1910 $D=189
M22 VDD D 7 VDD pfet L=1.2e-07 W=6.2e-07 m=1 par=1 nf=1 ngcon=1 psp=0 $X=1990 $Y=1910 $D=189
M23 11 6 VDD VDD pfet L=1.2e-07 W=9.6e-07 m=1 par=1 nf=1 ngcon=1 psp=0 $X=2430 $Y=1910 $D=189
M24 VDD 6 11 VDD pfet L=1.2e-07 W=9.6e-07 m=1 par=1 nf=1 ngcon=1 psp=0 $X=2910 $Y=1910 $D=189
M25 16 7 8 VDD pfet L=1.2e-07 W=8.8e-07 m=1 par=1 nf=1 ngcon=1 psp=0 $X=3770 $Y=2140 $D=189
M26 VDD 11 16 VDD pfet L=1.2e-07 W=8.8e-07 m=1 par=1 nf=1 ngcon=1 psp=0 $X=4090 $Y=2140 $D=189
M27 18 11 VDD VDD pfet L=1.2e-07 W=8.8e-07 m=1 par=1 nf=1 ngcon=1 psp=0 $X=4650 $Y=2140 $D=189
M28 8 7 18 VDD pfet L=1.2e-07 W=8.8e-07 m=1 par=1 nf=1 ngcon=1 psp=0 $X=4970 $Y=2140 $D=189
M29 19 9 8 VDD pfet L=1.2e-07 W=2.8e-07 m=1 par=1 nf=1 ngcon=1 psp=0 $X=5500 $Y=1930 $D=189
M30 VDD 10 19 VDD pfet L=1.2e-07 W=2.8e-07 m=1 par=1 nf=1 ngcon=1 psp=0 $X=5850 $Y=1930 $D=189
M31 10 8 VDD VDD pfet L=1.2e-07 W=1.28e-06 m=1 par=1 nf=1 ngcon=1 psp=0 $X=6330 $Y=1930 $D=189
M32 VDD 8 10 VDD pfet L=1.2e-07 W=1.28e-06 m=1 par=1 nf=1 ngcon=1 psp=0 $X=6810 $Y=1930 $D=189
M33 13 9 10 VDD pfet L=1.2e-07 W=9.4e-07 m=1 par=1 nf=1 ngcon=1 psp=0 $X=7820 $Y=1960 $D=189
M34 10 9 13 VDD pfet L=1.2e-07 W=9.4e-07 m=1 par=1 nf=1 ngcon=1 psp=0 $X=8300 $Y=1960 $D=189
M35 13 9 10 VDD pfet L=1.2e-07 W=9.4e-07 m=1 par=1 nf=1 ngcon=1 psp=0 $X=8780 $Y=1960 $D=189
M36 22 11 13 VDD pfet L=1.2e-07 W=2.8e-07 m=1 par=1 nf=1 ngcon=1 psp=0 $X=9300 $Y=2620 $D=189
M37 VDD 12 22 VDD pfet L=1.2e-07 W=2.8e-07 m=1 par=1 nf=1 ngcon=1 psp=0 $X=9620 $Y=2620 $D=189
M38 VDD 13 12 VDD pfet L=1.2e-07 W=2.8e-07 m=1 par=1 nf=1 ngcon=1 psp=0 $X=10180 $Y=1910 $D=189
M39 Q 13 VDD VDD pfet L=1.2e-07 W=1.3e-06 m=1 par=1 nf=1 ngcon=1 psp=0 $X=10580 $Y=1910 $D=189
M40 VDD 13 Q VDD pfet L=1.2e-07 W=1.3e-06 m=1 par=1 nf=1 ngcon=1 psp=0 $X=11060 $Y=1910 $D=189
.ENDS
***************************************
.SUBCKT NAND2X1TR B VSS Y A VDD
** N=19 EP=5 IP=0 FDC=4
M0 6 B VSS VSS nfet L=1.2e-07 W=6e-07 m=1 par=1 nf=1 ngcon=1 psp=0 $X=480 $Y=710 $D=97
M1 Y A 6 VSS nfet L=1.2e-07 W=6e-07 m=1 par=1 nf=1 ngcon=1 psp=0 $X=800 $Y=710 $D=97
M2 Y B VDD VDD pfet L=1.2e-07 W=6.4e-07 m=1 par=1 nf=1 ngcon=1 psp=0 $X=480 $Y=1910 $D=189
M3 VDD A Y VDD pfet L=1.2e-07 W=6.4e-07 m=1 par=1 nf=1 ngcon=1 psp=0 $X=960 $Y=1910 $D=189
.ENDS
***************************************
.SUBCKT NOR2X1TR B VDD A Y VSS
** N=20 EP=5 IP=0 FDC=4
M0 Y B VSS VSS nfet L=1.2e-07 W=4.6e-07 m=1 par=1 nf=1 ngcon=1 psp=0 $X=480 $Y=800 $D=97
M1 VSS A Y VSS nfet L=1.2e-07 W=4.6e-07 m=1 par=1 nf=1 ngcon=1 psp=0 $X=960 $Y=800 $D=97
M2 6 B VDD VDD pfet L=1.2e-07 W=8.4e-07 m=1 par=1 nf=1 ngcon=1 psp=0 $X=560 $Y=1910 $D=189
M3 Y A 6 VDD pfet L=1.2e-07 W=8.4e-07 m=1 par=1 nf=1 ngcon=1 psp=0 $X=880 $Y=1910 $D=189
.ENDS
***************************************
.SUBCKT OAI21X2TR A0 A1 VSS B0 Y VDD
** N=45 EP=6 IP=0 FDC=12
M0 VSS A1 7 VSS nfet L=1.2e-07 W=6.1e-07 m=1 par=1 nf=1 ngcon=1 psp=0 $X=480 $Y=700 $D=97
M1 7 A0 VSS VSS nfet L=1.2e-07 W=6.1e-07 m=1 par=1 nf=1 ngcon=1 psp=0 $X=1040 $Y=700 $D=97
M2 VSS A0 7 VSS nfet L=1.2e-07 W=6.1e-07 m=1 par=1 nf=1 ngcon=1 psp=0 $X=1520 $Y=700 $D=97
M3 7 A1 VSS VSS nfet L=1.2e-07 W=6.1e-07 m=1 par=1 nf=1 ngcon=1 psp=0 $X=2080 $Y=700 $D=97
M4 Y B0 7 VSS nfet L=1.2e-07 W=6.1e-07 m=1 par=1 nf=1 ngcon=1 psp=0 $X=2560 $Y=700 $D=97
M5 7 B0 Y VSS nfet L=1.2e-07 W=6.1e-07 m=1 par=1 nf=1 ngcon=1 psp=0 $X=3040 $Y=700 $D=97
M6 8 A1 VDD VDD pfet L=1.2e-07 W=8.4e-07 m=1 par=1 nf=1 ngcon=1 psp=0 $X=720 $Y=1910 $D=189
M7 Y A0 8 VDD pfet L=1.2e-07 W=8.4e-07 m=1 par=1 nf=1 ngcon=1 psp=0 $X=1040 $Y=1910 $D=189
M8 9 A0 Y VDD pfet L=1.2e-07 W=8.4e-07 m=1 par=1 nf=1 ngcon=1 psp=0 $X=1520 $Y=1910 $D=189
M9 VDD A1 9 VDD pfet L=1.2e-07 W=8.4e-07 m=1 par=1 nf=1 ngcon=1 psp=0 $X=1840 $Y=1910 $D=189
M10 Y B0 VDD VDD pfet L=1.2e-07 W=6.4e-07 m=1 par=1 nf=1 ngcon=1 psp=0 $X=2520 $Y=1910 $D=189
M11 VDD B0 Y VDD pfet L=1.2e-07 W=6.4e-07 m=1 par=1 nf=1 ngcon=1 psp=0 $X=3000 $Y=1910 $D=189
.ENDS
***************************************
.SUBCKT FILL32TR