$ Spice netlist generated by v2lvs
$ v2021.3_15.9    Tue Jul 6 13:44:20 PDT 2021
.INCLUDE "/afs/umich.edu/class/eecs627/ibm13/artisan/current/aci/sc-x/lvs_netlist/ibm13.cdl" 
.INCLUDE "/afs/umich.edu/class/eecs627/w23/lab_resource/lab3/reset_driver.cdl" 
*.BUSDELIMITER < 

.SUBCKT PE_POOL_top clk reset pe_in_pk_PE_state__2_ pe_in_pk_PE_state__1_ 
+ pe_in_pk_PE_state__0_ pe_in_pk_A__3__7_ pe_in_pk_A__3__6_ pe_in_pk_A__3__5_ 
+ pe_in_pk_A__3__4_ pe_in_pk_A__3__3_ pe_in_pk_A__3__2_ pe_in_pk_A__3__1_ 
+ pe_in_pk_A__3__0_ pe_in_pk_A__2__7_ pe_in_pk_A__2__6_ pe_in_pk_A__2__5_ 
+ pe_in_pk_A__2__4_ pe_in_pk_A__2__3_ pe_in_pk_A__2__2_ pe_in_pk_A__2__1_ 
+ pe_in_pk_A__2__0_ pe_in_pk_A__1__7_ pe_in_pk_A__1__6_ pe_in_pk_A__1__5_ 
+ pe_in_pk_A__1__4_ pe_in_pk_A__1__3_ pe_in_pk_A__1__2_ pe_in_pk_A__1__1_ 
+ pe_in_pk_A__1__0_ pe_in_pk_A__0__7_ pe_in_pk_A__0__6_ pe_in_pk_A__0__5_ 
+ pe_in_pk_A__0__4_ pe_in_pk_A__0__3_ pe_in_pk_A__0__2_ pe_in_pk_A__0__1_ 
+ pe_in_pk_A__0__0_ pe_in_pk_wrb_data__7_ pe_in_pk_wrb_data__6_ 
+ pe_in_pk_wrb_data__5_ pe_in_pk_wrb_data__4_ pe_in_pk_wrb_data__3_ 
+ pe_in_pk_wrb_data__2_ pe_in_pk_wrb_data__1_ pe_in_pk_wrb_data__0_ 
+ pe_in_pk_wrb_addr__3_ pe_in_pk_wrb_addr__2_ pe_in_pk_wrb_addr__1_ 
+ pe_in_pk_wrb_addr__0_ pe_in_pk_wrb__3_ pe_in_pk_wrb__2_ pe_in_pk_wrb__1_ 
+ pe_in_pk_wrb__0_ pe_in_pk_rdb_addr__3_ pe_in_pk_rdb_addr__2_ 
+ pe_in_pk_rdb_addr__1_ pe_in_pk_rdb_addr__0_ pk_out_PE_state__2_ 
+ pk_out_PE_state__1_ pk_out_PE_state__0_ pk_out_data__7_ pk_out_data__6_ 
+ pk_out_data__5_ pk_out_data__4_ pk_out_data__3_ pk_out_data__2_ 
+ pk_out_data__1_ pk_out_data__0_ 
*.CONNECT pk_out_data__7_ VSS
XPOSTROUTEFE_PSC238_n937 BUFX3TR $PINS A=n937 Y=FE_PSN238_n937 
XPOSTROUTEFE_PSBC236_n915 BUFX8TR $PINS A=n915 Y=FE_PSBN144_n915 
XPOSTROUTEFE_PSC237_n900 CLKBUFX2TR $PINS A=n900 Y=FE_PSN237_n900 
XPOSTROUTEFE_PSC236_n925 CLKBUFX2TR $PINS A=n925 Y=FE_PSN236_n925 
XPOSTROUTEFE_PSC235_n880 BUFX3TR $PINS A=n880 Y=FE_PSN235_n880 
XPLACEDFE_OCPC235_n879 BUFX8TR $PINS A=n879 Y=FE_OCPN143_n879 
XPLACEDFE_OCPC234_n157 BUFX3TR $PINS A=n157 Y=FE_OCPN142_n157 
XPLACEDFE_OCPC233_n162 BUFX8TR $PINS A=n162 Y=FE_OCPN141_n162 
XPLACEDFE_OFC232_n1076 BUFX6TR $PINS A=FE_OFN11_n1076 Y=FE_OFN51_n1076 
XPLACEDFE_OFC231_n1076 BUFX6TR $PINS A=n1076 Y=FE_OFN11_n1076 
XPLACEDFE_OFC229_n887 CLKINVX2TR $PINS A=n1034 Y=FE_OFN140_n887 
XPLACEDFE_OFC228_n887 CLKINVX2TR $PINS A=n1034 Y=FE_OFN139_n887 
XPLACEDFE_OFC227_n887 CLKINVX2TR $PINS A=n1034 Y=FE_OFN138_n887 
XPLACEDFE_OFC226_n887 CLKINVX2TR $PINS A=n1034 Y=FE_OFN137_n887 
XPLACEDFE_OFC225_n887 CLKINVX2TR $PINS A=n1034 Y=FE_OFN136_n887 
XPLACEDFE_OFC224_n887 CLKINVX2TR $PINS A=n1034 Y=FE_OFN135_n887 
XPLACEDFE_OFC223_n887 INVX2TR $PINS A=n887 Y=n1034 
XPLACEDFE_OFC222_n943 CLKINVX2TR $PINS A=n982 Y=FE_OFN134_n943 
XPLACEDFE_OFC221_n943 CLKINVX2TR $PINS A=n982 Y=FE_OFN133_n943 
XPLACEDFE_OFC220_n943 CLKINVX2TR $PINS A=n982 Y=FE_OFN132_n943 
XPLACEDFE_OFC219_n943 CLKINVX2TR $PINS A=n982 Y=FE_OFN131_n943 
XPLACEDFE_OFC218_n943 CLKINVX2TR $PINS A=n982 Y=FE_OFN130_n943 
XPLACEDFE_OFC217_n943 CLKINVX2TR $PINS A=n982 Y=FE_OFN129_n943 
XPLACEDFE_OFC216_n943 INVX2TR $PINS A=n943 Y=n982 
XPLACEDFE_OFC215_n884 INVX2TR $PINS A=n884 Y=n1019 
XPLACEDFE_OFC214_n1100 CLKINVX2TR $PINS A=FE_OFN24_n1100 Y=FE_OFN128_n1100 
XPLACEDFE_OFC213_n1100 CLKINVX4TR $PINS A=FE_OFN24_n1100 Y=FE_OFN105_n1100 
XPLACEDFE_OFC212_n1100 INVX2TR $PINS A=FE_OFN23_n1100 Y=FE_OFN24_n1100 
XPLACEDFE_OFC211_n1100 BUFX4TR $PINS A=n1100 Y=FE_OFN23_n1100 
XPLACEDFE_OFC210_n939 CLKBUFX2TR $PINS A=n939 Y=FE_OFN127_n939 
XPLACEDFE_OFC209_n939 CLKINVX2TR $PINS A=n939 Y=n984 
XPLACEDFE_OFC208_n921 CLKINVX2TR $PINS A=FE_OFN81_n921 Y=FE_OFN126_n921 
XPLACEDFE_OFC207_n921 CLKINVX2TR $PINS A=FE_OFN81_n921 Y=FE_OFN125_n921 
XPLACEDFE_OFC206_n921 CLKINVX2TR $PINS A=FE_OFN81_n921 Y=FE_OFN124_n921 
XPLACEDFE_OFC205_n921 CLKINVX2TR $PINS A=FE_OFN81_n921 Y=FE_OFN123_n921 
XPLACEDFE_OFC204_n921 CLKINVX2TR $PINS A=FE_OFN81_n921 Y=FE_OFN122_n921 
XPLACEDFE_OFC203_n921 INVX2TR $PINS A=n921 Y=FE_OFN81_n921 
XPLACEDFE_OFC202_n1096 CLKBUFX2TR $PINS A=FE_OFN14_n1096 Y=FE_OFN79_n1096 
XPLACEDFE_OFC201_n1096 CLKINVX6TR $PINS A=FE_OFN15_n1096 Y=FE_OFN14_n1096 
XPLACEDFE_OFC200_n1096 CLKINVX2TR $PINS A=n1096 Y=FE_OFN15_n1096 
XPLACEDFE_OFC199_n927 INVX2TR $PINS A=n927 Y=n1011 
XPLACEDFE_OFC198_n937 INVX4TR $PINS A=FE_PSN238_n937 Y=n980 
XPLACEDFE_OFC197_n883 INVX2TR $PINS A=n883 Y=n1025 
XPLACEDFE_OFC196_n917 INVX2TR $PINS A=n1000 Y=FE_OFN121_n917 
XPLACEDFE_OFC195_n917 INVX2TR $PINS A=n917 Y=n1000 
XPLACEDFE_OFC194_reset BUFX3TR $PINS A=FE_OFN27_FE_DBTN1_reset Y=FE_OFN116_n 
XPLACEDFE_OFC193_reset BUFX3TR $PINS A=FE_OFN27_FE_DBTN1_reset 
+ Y=FE_OFN32_FE_DBTN1_reset 
XPLACEDFE_OFC192_reset CLKINVX2TR $PINS A=FE_OFN113_reset Y=FE_OFN115_n 
XPLACEDFE_OFC191_reset CLKINVX2TR $PINS A=FE_OFN113_reset 
+ Y=FE_OFN31_FE_DBTN1_reset 
XPLACEDFE_OFC190_reset INVX2TR $PINS A=FE_OFN113_reset 
+ Y=FE_OFN27_FE_DBTN1_reset 
XPLACEDFE_OFC189_reset BUFX4TR $PINS A=FE_OFN112_reset Y=FE_OFN8_reset 
XPLACEDFE_OFC188_reset CLKINVX6TR $PINS A=FE_OFN1_reset Y=FE_OFN113_reset 
XPLACEDFE_OFC187_reset CLKINVX2TR $PINS A=FE_OFN1_reset Y=FE_OFN9_reset 
XPLACEDFE_OFC186_reset CLKINVX4TR $PINS A=FE_OFN1_reset Y=FE_OFN112_reset 
XPLACEDFE_OFC185_reset CLKINVX6TR $PINS A=reset Y=FE_OFN1_reset 
XCTS_ccl_a_inv_00010 CLKINVX20TR $PINS A=CTS_10 Y=CTS_9 
XCTS_ccl_a_inv_00009 CLKINVX20TR $PINS A=CTS_10 Y=CTS_8 
XCTS_ccl_a_inv_00006 CLKINVX20TR $PINS A=CTS_10 Y=CTS_7 
XCTS_ccl_a_inv_00003 CLKINVX20TR $PINS A=CTS_10 Y=CTS_12 
XCTS_ccl_a_inv_00002 CLKINVX20TR $PINS A=CTS_10 Y=CTS_11 
XCTS_ccl_a_inv_00012 CLKINVX20TR $PINS A=CTS_13 Y=CTS_10 
XCTS_ccl_a_inv_00008 CLKINVX20TR $PINS A=CTS_4 Y=CTS_3 
XCTS_ccl_a_inv_00007 CLKINVX20TR $PINS A=CTS_4 Y=CTS_2 
XCTS_ccl_a_inv_00005 CLKINVX20TR $PINS A=CTS_4 Y=CTS_1 
XCTS_ccl_a_inv_00004 CLKINVX20TR $PINS A=CTS_4 Y=CTS_6 
XCTS_ccl_a_inv_00001 CLKINVX20TR $PINS A=CTS_4 Y=CTS_5 
XCTS_ccl_a_inv_00011 CLKINVX20TR $PINS A=CTS_13 Y=CTS_4 
XCTS_ccl_a_inv_00013 CLKINVX20TR $PINS A=CTS_14 Y=CTS_13 
XCTS_ccl_a_inv_00014 CLKINVX8TR $PINS A=clk Y=CTS_14 
XPLACEDFE_OFC182_reset CLKINVX2TR $PINS A=FE_OFN117_n Y=FE_OFN118_n 
XPLACEDFE_OFC181_reset INVX2TR $PINS A=FE_OFN116_n Y=FE_OFN117_n 
XPLACEDFE_OFC177_reset CLKINVX2TR $PINS A=FE_OFN113_reset 
+ Y=FE_OFN29_FE_DBTN1_reset 
XPLACEDFE_OFC174_reset CLKINVX2TR $PINS A=FE_OFN113_reset Y=FE_DBTN1_reset 
XPLACEDFE_OFC172_reset CLKINVX2TR $PINS A=FE_OFN1_reset Y=FE_OFN114_reset 
XPLACEDFE_OFC169_reset CLKINVX2TR $PINS A=FE_OFN1_reset Y=FE_OFN6_reset 
XPLACEDFE_OFC167_reset CLKINVX2TR $PINS A=FE_OFN1_reset Y=FE_OFN3_reset 
XPLACEDFE_OFC166_reset CLKINVX2TR $PINS A=FE_OFN1_reset Y=FE_OFN2_reset 
XPLACEDFE_OFC164_n909 CLKINVX2TR $PINS A=n986 Y=FE_OFN111_n909 
XPLACEDFE_OFC163_n909 CLKINVX2TR $PINS A=n986 Y=FE_OFN110_n909 
XPLACEDFE_OFC162_n909 CLKINVX2TR $PINS A=n986 Y=FE_OFN109_n909 
XPLACEDFE_OFC161_n909 CLKINVX2TR $PINS A=n986 Y=FE_OFN108_n909 
XPLACEDFE_OFC160_n909 CLKINVX2TR $PINS A=n986 Y=FE_OFN107_n909 
XPLACEDFE_OFC159_n909 CLKINVX2TR $PINS A=n986 Y=FE_OFN106_n909 
XPLACEDFE_OFC158_n909 CLKINVX2TR $PINS A=n909 Y=n986 
XPLACEDFE_OFC154_n967 BUFX3TR $PINS A=FE_OFN43_n967 Y=FE_OFN104_n967 
XPLACEDFE_OFC153_n967 BUFX4TR $PINS A=n967 Y=FE_OFN43_n967 
XPLACEDFE_OFC151_n971 BUFX3TR $PINS A=FE_OFN46_n971 Y=FE_OFN103_n971 
XPLACEDFE_OFC150_n971 BUFX3TR $PINS A=n971 Y=FE_OFN46_n971 
XPLACEDFE_OFC148_n913 CLKINVX2TR $PINS A=n994 Y=FE_OFN102_n913 
XPLACEDFE_OFC147_n913 CLKINVX2TR $PINS A=n994 Y=FE_OFN101_n913 
XPLACEDFE_OFC146_n913 CLKINVX2TR $PINS A=n994 Y=FE_OFN100_n913 
XPLACEDFE_OFC145_n913 CLKINVX2TR $PINS A=n994 Y=FE_OFN99_n913 
XPLACEDFE_OFC144_n913 CLKINVX2TR $PINS A=n994 Y=FE_OFN98_n913 
XPLACEDFE_OFC143_n913 CLKINVX2TR $PINS A=n913 Y=n994 
XPLACEDFE_OFC142_n881 BUFX3TR $PINS A=FE_OFN34_n881 Y=FE_OFN97_n881 
XPLACEDFE_OFC141_n881 BUFX3TR $PINS A=FE_OFN33_n881 Y=FE_OFN34_n881 
XPLACEDFE_OFC140_n881 BUFX3TR $PINS A=n881 Y=FE_OFN33_n881 
XPLACEDFE_OFC139_n1098 CLKBUFX2TR $PINS A=FE_OFN20_n1098 Y=FE_OFN96_n1098 
XPLACEDFE_OFC138_n1098 CLKINVX2TR $PINS A=FE_OFN19_n1098 Y=FE_OFN95_n1098 
XPLACEDFE_OFC137_n1098 CLKINVX6TR $PINS A=FE_OFN19_n1098 Y=FE_OFN20_n1098 
XPLACEDFE_OFC136_n1098 CLKINVX2TR $PINS A=n1098 Y=FE_OFN19_n1098 
XPLACEDFE_OFC135_n955 CLKINVX2TR $PINS A=FE_OFN38_n955 Y=FE_OFN94_n955 
XPLACEDFE_OFC134_n955 CLKINVX2TR $PINS A=FE_OFN38_n955 Y=FE_OFN93_n955 
XPLACEDFE_OFC133_n955 CLKINVX2TR $PINS A=FE_OFN37_n955 Y=FE_OFN38_n955 
XPLACEDFE_OFC132_n955 BUFX3TR $PINS A=n955 Y=FE_OFN37_n955 
XPLACEDFE_OFC128_pe_in_pk_rdb_addr__2 CLKINVX2TR $PINS A=n1078 
+ Y=FE_OFN89_pe_in_pk_rdb_addr__2 
XPLACEDFE_OFC127_pe_in_pk_rdb_addr__2 INVX2TR $PINS A=pe_in_pk_rdb_addr__2_ 
+ Y=n1078 
XPLACEDFE_OFC126_n963 INVX2TR $PINS A=FE_OFN86_n963 Y=FE_OFN88_n963 
XPLACEDFE_OFC125_n963 CLKINVX2TR $PINS A=FE_OFN86_n963 Y=FE_OFN87_n963 
XPLACEDFE_OFC124_n963 CLKINVX2TR $PINS A=FE_OFN41_n963 Y=FE_OFN86_n963 
XPLACEDFE_OFC123_n963 CLKBUFX2TR $PINS A=FE_OFN41_n963 Y=FE_OFN42_n963 
XPLACEDFE_OFC122_n963 CLKBUFX2TR $PINS A=n963 Y=FE_OFN41_n963 
XPLACEDFE_OFC121_n959 BUFX3TR $PINS A=FE_OFN40_n959 Y=FE_OFN85_n959 
XPLACEDFE_OFC120_n959 BUFX3TR $PINS A=FE_OFN39_n959 Y=FE_OFN40_n959 
XPLACEDFE_OFC119_n959 CLKBUFX2TR $PINS A=n959 Y=FE_OFN39_n959 
XPLACEDFE_OFC118_n975 CLKBUFX2TR $PINS A=FE_OFN83_n975 Y=FE_OFN84_n975 
XPLACEDFE_OFC117_n975 CLKINVX2TR $PINS A=FE_OFN47_n975 Y=FE_OFN83_n975 
XPLACEDFE_OFC115_n975 CLKINVX2TR $PINS A=FE_OFN47_n975 Y=FE_OFN48_n975 
XPLACEDFE_OFC114_n975 CLKINVX2TR $PINS A=n975 Y=FE_OFN47_n975 
XPLACEDFE_OFC111_n1080 CLKBUFX2TR $PINS A=FE_OFN12_n1080 Y=FE_OFN80_n1080 
XPLACEDFE_OFC110_n1080 CLKBUFX2TR $PINS A=FE_OFN12_n1080 Y=FE_OFN13_n1080 
XPLACEDFE_OFC109_n1080 BUFX3TR $PINS A=n1080 Y=FE_OFN12_n1080 
XPLACEDFE_OFC106_n1096 CLKINVX2TR $PINS A=FE_OFN15_n1096 Y=FE_OFN16_n1096 
XPLACEDFE_OFC104_n891 CLKINVX2TR $PINS A=n1041 Y=FE_OFN78_n891 
XPLACEDFE_OFC103_n891 CLKINVX2TR $PINS A=n1041 Y=FE_OFN77_n891 
XPLACEDFE_OFC102_n891 CLKINVX2TR $PINS A=n1041 Y=FE_OFN76_n891 
XPLACEDFE_OFC101_n891 CLKINVX2TR $PINS A=n1041 Y=FE_OFN75_n891 
XPLACEDFE_OFC100_n891 CLKINVX2TR $PINS A=n1041 Y=FE_OFN74_n891 
XPLACEDFE_OFC99_n891 INVX2TR $PINS A=n891 Y=n1041 
XPLACEDFE_OFC98_n949 INVX2TR $PINS A=FE_OFN36_n949 Y=FE_OFN73_n949 
XPLACEDFE_OFC97_n949 CLKINVX2TR $PINS A=FE_OFN36_n949 Y=FE_OFN72_n949 
XPLACEDFE_OFC96_n949 INVX2TR $PINS A=FE_OFN35_n949 Y=FE_OFN36_n949 
XPLACEDFE_OFC95_n949 BUFX3TR $PINS A=n949 Y=FE_OFN35_n949 
XPLACEDFE_OFC94_pe_in_pk_rdb_addr__0 INVX2TR $PINS A=n1079 
+ Y=FE_OFN71_pe_in_pk_rdb_addr__0 
XPLACEDFE_OFC93_pe_in_pk_rdb_addr__0 INVX2TR $PINS A=pe_in_pk_rdb_addr__0_ 
+ Y=n1079 
XPLACEDFE_OFC92_n918 CLKINVX1TR $PINS A=n918 Y=FE_OFN70_n918 
XPLACEDFE_OFC90_n918 INVX4TR $PINS A=n918 Y=n1003 
XPLACEDFE_OFC89_n947 CLKINVX2TR $PINS A=n996 Y=FE_OFN68_n947 
XPLACEDFE_OFC88_n947 CLKINVX2TR $PINS A=n996 Y=FE_OFN67_n947 
XPLACEDFE_OFC87_n947 CLKINVX2TR $PINS A=n996 Y=FE_OFN66_n947 
XPLACEDFE_OFC86_n947 CLKINVX2TR $PINS A=n996 Y=FE_OFN65_n947 
XPLACEDFE_OFC85_n947 CLKINVX2TR $PINS A=n996 Y=FE_OFN64_n947 
XPLACEDFE_OFC84_n947 INVX2TR $PINS A=n947 Y=n996 
XPLACEDFE_OFC83_n916 INVX2TR $PINS A=n916 Y=FE_OFN63_n916 
XPLACEDFE_OFC80_n928 INVX2TR $PINS A=n928 Y=n1013 
XPLACEDFE_OFC79_n1099 CLKBUFX2TR $PINS A=FE_OFN21_n1099 Y=FE_OFN22_n1099 
XPLACEDFE_OFC78_n1099 CLKBUFX2TR $PINS A=n1099 Y=FE_OFN21_n1099 
XPLACEDFE_OFC77_n912 INVX2TR $PINS A=n992 Y=FE_OFN61_n912 
XPLACEDFE_OFC76_n912 INVX2TR $PINS A=n912 Y=n992 
XPLACEDFE_OFC75_n904 INVX2TR $PINS A=n1045 Y=FE_OFN60_n904 
XPLACEDFE_OFC74_n904 CLKINVX2TR $PINS A=n904 Y=n1045 
XPLACEDFE_OFC73_n935 CLKINVX2TR $PINS A=n998 Y=FE_OFN59_n935 
XPLACEDFE_OFC71_n935 INVX2TR $PINS A=n935 Y=n998 
XPLACEDFE_OFC70_n890 INVX2TR $PINS A=FE_OFN50_n890 Y=n1039 
XPLACEDFE_OFC69_n890 BUFX4TR $PINS A=n890 Y=FE_OFN50_n890 
XPLACEDFE_OFC66_n886 INVX2TR $PINS A=n1032 Y=FE_OFN57_n886 
XPLACEDFE_OFC65_n886 CLKBUFX2TR $PINS A=n886 Y=n1032 
XPLACEDFE_OFC64_n923 INVX4TR $PINS A=n923 Y=FE_OFN56_n923 
XPLACEDFE_OFC62_n1097 BUFX3TR $PINS A=FE_OFN18_n1097 Y=FE_OFN55_n1097 
XPLACEDFE_OFC61_n1097 CLKINVX2TR $PINS A=FE_OFN17_n1097 Y=FE_OFN54_n1097 
XPLACEDFE_OFC60_n1097 INVX2TR $PINS A=FE_OFN17_n1097 Y=FE_OFN18_n1097 
XPLACEDFE_OFC59_n1097 CLKINVX1TR $PINS A=n1097 Y=FE_OFN17_n1097 
XPLACEDFE_OFC58_n903 INVX2TR $PINS A=n903 Y=n978 
XPLACEDFE_OFC57_n1101 BUFX3TR $PINS A=FE_OFN52_n1101 Y=FE_OFN53_n1101 
XPLACEDFE_OFC56_n1101 INVX2TR $PINS A=FE_OFN25_n1101 Y=FE_OFN52_n1101 
XPLACEDFE_OFC55_n1101 CLKINVX2TR $PINS A=FE_OFN25_n1101 Y=FE_OFN26_n1101 
XPLACEDFE_OFC54_n1101 CLKINVX2TR $PINS A=n1101 Y=FE_OFN25_n1101 
XPLACEDFE_OFC7_reset CLKBUFX2TR $PINS A=FE_OFN4_reset Y=FE_OFN7_reset 
XPLACEDFE_OFC4_reset CLKBUFX2TR $PINS A=FE_OFN6_reset Y=FE_OFN4_reset 
XPLACEDFE_OFC0_FE_DBTN0_n2195 BUFX3TR $PINS A=FE_DBTN0_n2195 
+ Y=FE_OFN0_FE_DBTN0_n2195 
XPLACEDFE_DBTC0_n2195 INVX2TR $PINS A=n2195 Y=FE_DBTN0_n2195 
Xclk_r_REG12_S3 DFFQX1TR $PINS D=n1727 CK=CTS_12 Q=n2232 
Xclk_r_REG577_S1 DFFQX1TR $PINS D=n1717 CK=CTS_9 Q=n2222 
Xclk_r_REG572_S1 DFFQX1TR $PINS D=n1712 CK=CTS_6 Q=n2217 
Xclk_r_REG559_S1 DFFQX1TR $PINS D=n1709 CK=CTS_3 Q=n2214 
Xclk_r_REG556_S1 DFFQX1TR $PINS D=n1706 CK=CTS_6 Q=n2211 
Xclk_r_REG549_S1 DFFQX1TR $PINS D=n1699 CK=CTS_1 Q=n2204 
Xclk_r_REG568_S1 DFFQX1TR $PINS D=n1698 CK=CTS_2 Q=n2203 
Xclk_r_REG567_S1 DFFQX1TR $PINS D=n1697 CK=CTS_7 Q=n2202 
Xclk_r_REG566_S1 DFFQX1TR $PINS D=n1696 CK=CTS_9 Q=n2201 
Xclk_r_REG450_S1 DFFHQX1TR $PINS D=FE_OFN32_FE_DBTN1_reset CK=CTS_7 Q=n2195 
Xclk_r_REG325_S1 DFFQX1TR $PINS D=n1685 CK=CTS_12 Q=n2188 
Xclk_r_REG344_S1 DFFQX1TR $PINS D=n1682 CK=CTS_6 Q=n2184 
Xclk_r_REG343_S1 DFFQX1TR $PINS D=n1681 CK=CTS_6 Q=n2183 
Xclk_r_REG349_S1 DFFQX1TR $PINS D=n1652 CK=CTS_6 Q=n2152 
Xclk_r_REG300_S1 DFFQX1TR $PINS D=n1646 CK=CTS_6 Q=n2144 
Xclk_r_REG299_S1 DFFQX1TR $PINS D=n1645 CK=CTS_6 Q=n2143 
Xclk_r_REG305_S1 DFFQX1TR $PINS D=n1616 CK=CTS_6 Q=n2112 
Xclk_r_REG256_S1 DFFQX1TR $PINS D=n1610 CK=CTS_3 Q=n2104 
Xclk_r_REG255_S1 DFFQX1TR $PINS D=n1609 CK=CTS_6 Q=n2103 
Xclk_r_REG261_S1 DFFQX1TR $PINS D=n1580 CK=CTS_6 Q=n2072 
Xclk_r_REG209_S1 DFFQX1TR $PINS D=n1574 CK=CTS_6 Q=n2064 
Xclk_r_REG208_S1 DFFQX1TR $PINS D=n1573 CK=CTS_6 Q=n2063 
Xclk_r_REG203_S1 DFFQX1TR $PINS D=n1568 CK=CTS_6 Q=n2058 
Xclk_r_REG202_S1 DFFQX1TR $PINS D=n1567 CK=CTS_6 Q=n2057 
Xclk_r_REG199_S1 DFFQX1TR $PINS D=n1564 CK=CTS_7 Q=n2054 
Xclk_r_REG198_S1 DFFQX1TR $PINS D=n1563 CK=CTS_9 Q=n2053 
Xclk_r_REG197_S1 DFFQX1TR $PINS D=n1562 CK=CTS_9 Q=n2052 
Xclk_r_REG196_S1 DFFQX1TR $PINS D=n1561 CK=CTS_9 Q=n2051 
Xclk_r_REG195_S1 DFFQX1TR $PINS D=n1560 CK=CTS_9 Q=n2050 
Xclk_r_REG232_S2 DFFQX1TR $PINS D=n2049 CK=CTS_11 Q=n2048 
Xclk_r_REG227_S1 DFFQX1TR $PINS D=n1555 CK=CTS_3 Q=n2043 
Xclk_r_REG226_S1 DFFQX1TR $PINS D=n1554 CK=CTS_3 Q=n2042 
Xclk_r_REG216_S1 DFFQX1TR $PINS D=n1544 CK=CTS_6 Q=n2032 
Xclk_r_REG137_S1 DFFQX1TR $PINS D=n1543 CK=CTS_7 Q=n2031 
Xclk_r_REG136_S1 DFFQX1TR $PINS D=n1542 CK=CTS_9 Q=n2029 
Xclk_r_REG135_S1 DFFQX1TR $PINS D=n1541 CK=CTS_12 Q=n2028 
Xclk_r_REG134_S1 DFFQX1TR $PINS D=n1540 CK=CTS_12 Q=n2027 
Xclk_r_REG155_S1 DFFQX1TR $PINS D=n1539 CK=CTS_2 Q=n2026 
Xclk_r_REG154_S1 DFFQX1TR $PINS D=n1538 CK=CTS_6 Q=n2024 
Xclk_r_REG153_S1 DFFQX1TR $PINS D=n1537 CK=CTS_6 Q=n2023 
Xclk_r_REG152_S1 DFFQX1TR $PINS D=n1536 CK=CTS_1 Q=n2022 
Xclk_r_REG151_S1 DFFQX1TR $PINS D=n1535 CK=CTS_1 Q=n2021 
Xclk_r_REG150_S1 DFFQX1TR $PINS D=n1534 CK=CTS_12 Q=n2020 
Xclk_r_REG149_S1 DFFQX2TR $PINS D=n1533 CK=CTS_12 Q=n2019 
Xclk_r_REG148_S1 DFFQX1TR $PINS D=n1532 CK=CTS_12 Q=n2018 
Xclk_r_REG147_S1 DFFQX1TR $PINS D=n1531 CK=CTS_1 Q=n2017 
Xclk_r_REG146_S1 DFFQX1TR $PINS D=n1530 CK=CTS_6 Q=n2016 
Xclk_r_REG145_S1 DFFQX1TR $PINS D=n1529 CK=CTS_6 Q=n2015 
Xclk_r_REG144_S1 DFFQX1TR $PINS D=n1528 CK=CTS_1 Q=n2014 
Xclk_r_REG143_S1 DFFQX1TR $PINS D=n1527 CK=CTS_9 Q=n2013 
Xclk_r_REG142_S1 DFFQX1TR $PINS D=n1526 CK=CTS_9 Q=n2012 
Xclk_r_REG141_S1 DFFQX1TR $PINS D=n1525 CK=CTS_9 Q=n2011 
Xclk_r_REG140_S1 DFFQX1TR $PINS D=n1524 CK=CTS_9 Q=n2010 
Xclk_r_REG177_S1 DFFQX1TR $PINS D=n1523 CK=CTS_11 Q=n2009 
Xclk_r_REG176_S1 DFFQX1TR $PINS D=n1522 CK=CTS_6 Q=n2007 
Xclk_r_REG175_S1 DFFQX1TR $PINS D=n1521 CK=CTS_11 Q=n2005 
Xclk_r_REG173_S1 DFFQX1TR $PINS D=n1519 CK=CTS_3 Q=n2003 
Xclk_r_REG172_S1 DFFQX2TR $PINS D=n1518 CK=CTS_3 Q=n2002 
Xclk_r_REG168_S1 DFFQX1TR $PINS D=n1514 CK=CTS_8 Q=n1998 
Xclk_r_REG167_S1 DFFQX1TR $PINS D=n1513 CK=CTS_8 Q=n1997 
Xclk_r_REG166_S1 DFFQX1TR $PINS D=n1512 CK=CTS_11 Q=n1996 
Xclk_r_REG162_S1 DFFQX1TR $PINS D=n1508 CK=CTS_6 Q=n1992 
Xclk_r_REG4_S1 DFFQX1TR $PINS D=n1507 CK=CTS_7 Q=n1991 
Xclk_r_REG5_S2 DFFQX1TR $PINS D=n1991 CK=CTS_7 Q=n1990 
Xclk_r_REG3_S1 DFFQX1TR $PINS D=n1506 CK=CTS_9 Q=n1989 
Xclk_r_REG2_S1 DFFQX1TR $PINS D=n1505 CK=CTS_9 Q=n1988 
Xclk_r_REG1_S1 DFFQX1TR $PINS D=n1504 CK=CTS_9 Q=n1987 
Xclk_r_REG68_S1 DFFQX1TR $PINS D=n1503 CK=CTS_2 Q=n1986 
Xclk_r_REG67_S1 DFFQX1TR $PINS D=n1502 CK=CTS_6 Q=n1984 
Xclk_r_REG66_S1 DFFQX1TR $PINS D=n1501 CK=CTS_6 Q=n1983 
Xclk_r_REG65_S1 DFFQX1TR $PINS D=n1500 CK=CTS_1 Q=n1982 
Xclk_r_REG64_S1 DFFQX1TR $PINS D=n1499 CK=CTS_1 Q=n1981 
Xclk_r_REG63_S1 DFFQX1TR $PINS D=n1498 CK=CTS_12 Q=n1980 
Xclk_r_REG62_S1 DFFQX1TR $PINS D=n1497 CK=CTS_12 Q=n1979 
Xclk_r_REG61_S1 DFFQX1TR $PINS D=n1496 CK=CTS_1 Q=n1978 
Xclk_r_REG60_S1 DFFQX2TR $PINS D=n1495 CK=CTS_1 Q=n1977 
Xclk_r_REG59_S1 DFFQX1TR $PINS D=n1494 CK=CTS_1 Q=n1976 
Xclk_r_REG58_S1 DFFQX1TR $PINS D=n1493 CK=CTS_6 Q=n1975 
Xclk_r_REG57_S1 DFFQX1TR $PINS D=n1492 CK=CTS_7 Q=n1974 
Xclk_r_REG56_S1 DFFQX1TR $PINS D=n1491 CK=CTS_9 Q=n1973 
Xclk_r_REG55_S1 DFFQX1TR $PINS D=n1490 CK=CTS_9 Q=n1972 
Xclk_r_REG54_S1 DFFQX1TR $PINS D=n1489 CK=CTS_9 Q=n1971 
Xclk_r_REG53_S1 DFFQX1TR $PINS D=n1488 CK=CTS_9 Q=n1970 
Xclk_r_REG111_S1 DFFQX1TR $PINS D=n1487 CK=CTS_11 Q=n1969 
Xclk_r_REG112_S2 DFFQX1TR $PINS D=n1969 CK=CTS_11 Q=n1968 
Xclk_r_REG110_S1 DFFQX1TR $PINS D=n1486 CK=CTS_2 Q=n1967 
Xclk_r_REG124_S2 DFFQX1TR $PINS D=n1967 CK=CTS_2 Q=n1966 
Xclk_r_REG109_S1 DFFQX1TR $PINS D=n1485 CK=CTS_11 Q=n1965 
Xclk_r_REG108_S1 DFFQX1TR $PINS D=n1484 CK=CTS_8 Q=n1964 
Xclk_r_REG107_S1 DFFQX1TR $PINS D=n1483 CK=CTS_3 Q=n1963 
Xclk_r_REG106_S1 DFFQX1TR $PINS D=n1482 CK=CTS_3 Q=n1962 
Xclk_r_REG105_S1 DFFQX1TR $PINS D=n1481 CK=CTS_8 Q=n1961 
Xclk_r_REG104_S1 DFFQX1TR $PINS D=n1480 CK=CTS_8 Q=n1960 
Xclk_r_REG103_S1 DFFQX1TR $PINS D=n1479 CK=CTS_8 Q=n1959 
Xclk_r_REG102_S1 DFFQX1TR $PINS D=n1478 CK=CTS_8 Q=n1958 
Xclk_r_REG101_S1 DFFQX1TR $PINS D=n1477 CK=CTS_8 Q=n1957 
Xclk_r_REG100_S1 DFFQX1TR $PINS D=n1476 CK=CTS_8 Q=n1956 
Xclk_r_REG99_S1 DFFQX1TR $PINS D=n1475 CK=CTS_3 Q=n1955 
Xclk_r_REG97_S1 DFFQX1TR $PINS D=n1473 CK=CTS_6 Q=n1953 
Xclk_r_REG96_S1 DFFQX1TR $PINS D=n1472 CK=CTS_6 Q=n1952 
Xclk_r_REG504_S1 DFFQX1TR $PINS D=n1471 CK=CTS_7 Q=n1951 
Xclk_r_REG503_S1 DFFQX1TR $PINS D=n1470 CK=CTS_9 Q=n1949 
Xclk_r_REG502_S1 DFFQX1TR $PINS D=n1469 CK=CTS_9 Q=n1948 
Xclk_r_REG501_S1 DFFQX1TR $PINS D=n1468 CK=CTS_9 Q=n1947 
Xclk_r_REG522_S1 DFFQX1TR $PINS D=n1467 CK=CTS_2 Q=n1946 
Xclk_r_REG520_S1 DFFQX1TR $PINS D=n1465 CK=CTS_6 Q=n1943 
Xclk_r_REG519_S1 DFFQX1TR $PINS D=n1464 CK=CTS_7 Q=n1942 
Xclk_r_REG518_S1 DFFQX1TR $PINS D=n1463 CK=CTS_1 Q=n1941 
Xclk_r_REG517_S1 DFFQX1TR $PINS D=n1462 CK=CTS_12 Q=n1940 
Xclk_r_REG516_S1 DFFQX1TR $PINS D=n1461 CK=CTS_12 Q=n1939 
Xclk_r_REG515_S1 DFFQX1TR $PINS D=n1460 CK=CTS_12 Q=n1938 
Xclk_r_REG514_S1 DFFQX2TR $PINS D=n1459 CK=CTS_12 Q=n1937 
Xclk_r_REG513_S1 DFFQX1TR $PINS D=n1458 CK=CTS_6 Q=n1936 
Xclk_r_REG512_S1 DFFQX1TR $PINS D=n1457 CK=CTS_6 Q=n1935 
Xclk_r_REG511_S1 DFFQX1TR $PINS D=n1456 CK=CTS_9 Q=n1934 
Xclk_r_REG510_S1 DFFQX1TR $PINS D=n1455 CK=CTS_9 Q=n1933 
Xclk_r_REG509_S1 DFFQX1TR $PINS D=n1454 CK=CTS_9 Q=n1932 
Xclk_r_REG508_S1 DFFQX1TR $PINS D=n1453 CK=CTS_9 Q=n1931 
Xclk_r_REG507_S1 DFFQX1TR $PINS D=n1452 CK=CTS_9 Q=n1930 
Xclk_r_REG539_S1 DFFQX1TR $PINS D=n1449 CK=CTS_8 Q=n1925 
Xclk_r_REG538_S1 DFFQX1TR $PINS D=n1448 CK=CTS_8 Q=n1924 
Xclk_r_REG537_S1 DFFQX1TR $PINS D=n1447 CK=CTS_3 Q=n1923 
Xclk_r_REG536_S1 DFFQX1TR $PINS D=n1446 CK=CTS_3 Q=n1922 
Xclk_r_REG533_S1 DFFQX1TR $PINS D=n1443 CK=CTS_8 Q=n1919 
Xclk_r_REG526_S1 DFFQX1TR $PINS D=n1436 CK=CTS_6 Q=n1912 
Xclk_r_REG460_S1 DFFQX1TR $PINS D=n1435 CK=CTS_7 Q=n1911 
Xclk_r_REG459_S1 DFFQX1TR $PINS D=n1434 CK=CTS_9 Q=n1909 
Xclk_r_REG458_S1 DFFQX1TR $PINS D=n1433 CK=CTS_9 Q=n1908 
Xclk_r_REG457_S1 DFFQX1TR $PINS D=n1432 CK=CTS_9 Q=n1907 
Xclk_r_REG478_S1 DFFQX1TR $PINS D=n1431 CK=CTS_2 Q=n1906 
Xclk_r_REG476_S1 DFFQX1TR $PINS D=n1429 CK=CTS_6 Q=n1903 
Xclk_r_REG475_S1 DFFQX1TR $PINS D=n1428 CK=CTS_1 Q=n1902 
Xclk_r_REG474_S1 DFFQX1TR $PINS D=n1427 CK=CTS_1 Q=n1901 
Xclk_r_REG473_S1 DFFQX1TR $PINS D=n1426 CK=CTS_3 Q=n1900 
Xclk_r_REG472_S1 DFFQX1TR $PINS D=n1425 CK=CTS_6 Q=n1899 
Xclk_r_REG471_S1 DFFQX1TR $PINS D=n1424 CK=CTS_1 Q=n1898 
Xclk_r_REG470_S1 DFFQX1TR $PINS D=n1423 CK=CTS_1 Q=n1897 
Xclk_r_REG469_S1 DFFQX1TR $PINS D=n1422 CK=CTS_6 Q=n1896 
Xclk_r_REG468_S1 DFFQX1TR $PINS D=n1421 CK=CTS_6 Q=n1895 
Xclk_r_REG467_S1 DFFQX1TR $PINS D=n1420 CK=CTS_7 Q=n1894 
Xclk_r_REG466_S1 DFFQX1TR $PINS D=n1419 CK=CTS_9 Q=n1893 
Xclk_r_REG465_S1 DFFQX1TR $PINS D=n1418 CK=CTS_9 Q=n1892 
Xclk_r_REG464_S1 DFFQX1TR $PINS D=n1417 CK=CTS_9 Q=n1891 
Xclk_r_REG463_S1 DFFQX1TR $PINS D=n1416 CK=CTS_9 Q=n1890 
Xclk_r_REG497_S1 DFFQX1TR $PINS D=n1415 CK=CTS_11 Q=n1889 
Xclk_r_REG498_S2 DFFQX1TR $PINS D=n1889 CK=CTS_11 Q=n1888 
Xclk_r_REG496_S1 DFFQX1TR $PINS D=n1414 CK=CTS_2 Q=n1887 
Xclk_r_REG495_S1 DFFQX1TR $PINS D=n1413 CK=CTS_8 Q=n1885 
Xclk_r_REG494_S1 DFFQX1TR $PINS D=n1412 CK=CTS_8 Q=n1884 
Xclk_r_REG493_S1 DFFQX1TR $PINS D=n1411 CK=CTS_3 Q=n1883 
Xclk_r_REG492_S1 DFFQX1TR $PINS D=n1410 CK=CTS_3 Q=n1882 
Xclk_r_REG489_S1 DFFQX1TR $PINS D=n1407 CK=CTS_8 Q=n1879 
Xclk_r_REG482_S1 DFFQX1TR $PINS D=n1400 CK=CTS_6 Q=n1872 
Xclk_r_REG41_S1 DFFQX1TR $PINS D=n1395 CK=CTS_7 Q=n1871 
Xclk_r_REG569_S1 DFFQX1TR $PINS D=FE_OFN32_FE_DBTN1_reset CK=CTS_7 Q=n1866 
Xclk_r_REG452_S1 DFFQX1TR $PINS D=FE_OFN114_reset CK=CTS_7 Q=n1865 
Xclk_r_REG179_S3 DFFQX1TR $PINS 
+ D=PE_top0_buff_mult_arr0_genblk1_0__buffer_mult0_MULT_single0_out_int_4_ 
+ CK=CTS_7 Q=n1864 
Xclk_r_REG159_S3 DFFQX1TR $PINS 
+ D=PE_top0_buff_mult_arr0_genblk1_3__buffer_mult0_MULT_single0_out_int_4_ 
+ CK=CTS_2 Q=n1863 
Xclk_r_REG157_S3 DFFQX1TR $PINS 
+ D=PE_top0_buff_mult_arr0_genblk1_2__buffer_mult0_MULT_single0_out_int<4> 
+ CK=CTS_1 Q=n1861 
Xclk_r_REG127_S2 DFFQX1TR $PINS 
+ D=PE_top0_buff_mult_arr0_genblk1_1__buffer_mult0_MULT_single0_out_int<4> 
+ CK=CTS_7 Q=n1859 
Xclk_r_REG455_S1 DFFQX1TR $PINS D=pe_in_pk_int_A__3__7_ CK=CTS_5 Q=n1858 
Xclk_r_REG447_S1 DFFQX1TR $PINS D=pe_in_pk_int_A__3__6_ CK=CTS_5 Q=n1857 
Xclk_r_REG445_S1 DFFQX1TR $PINS D=pe_in_pk_int_A__3__5_ CK=CTS_5 Q=n1856 
Xclk_r_REG443_S1 DFFQX1TR $PINS D=pe_in_pk_int_A__3__4_ CK=CTS_5 Q=n1855 
Xclk_r_REG441_S1 DFFQX1TR $PINS D=pe_in_pk_int_A__3__3_ CK=CTS_5 Q=n1854 
Xclk_r_REG439_S1 DFFQX1TR $PINS D=pe_in_pk_int_A__3__2_ CK=CTS_5 Q=n1853 
Xclk_r_REG437_S1 DFFQX1TR $PINS D=pe_in_pk_int_A__3__1_ CK=CTS_5 Q=n1852 
Xclk_r_REG435_S1 DFFQX1TR $PINS D=pe_in_pk_int_A__3__0_ CK=CTS_5 Q=n1851 
Xclk_r_REG433_S1 DFFQX1TR $PINS D=pe_in_pk_int_A__2__7_ CK=CTS_5 Q=n1850 
Xclk_r_REG431_S1 DFFQX1TR $PINS D=pe_in_pk_int_A__2__6_ CK=CTS_5 Q=n1849 
Xclk_r_REG429_S1 DFFQX1TR $PINS D=pe_in_pk_int_A__2__5_ CK=CTS_5 Q=n1848 
Xclk_r_REG427_S1 DFFQX1TR $PINS D=pe_in_pk_int_A__2__4_ CK=CTS_5 Q=n1847 
Xclk_r_REG425_S1 DFFQX1TR $PINS D=pe_in_pk_int_A__2__3_ CK=CTS_5 Q=n1846 
Xclk_r_REG423_S1 DFFQX1TR $PINS D=pe_in_pk_int_A__2__2_ CK=CTS_5 Q=n1845 
Xclk_r_REG421_S1 DFFQX1TR $PINS D=pe_in_pk_int_A__2__1_ CK=CTS_5 Q=n1844 
Xclk_r_REG419_S1 DFFQX1TR $PINS D=pe_in_pk_int_A__2__0_ CK=CTS_5 Q=n1843 
Xclk_r_REG417_S1 DFFQX1TR $PINS D=pe_in_pk_int_A__1__7_ CK=CTS_5 Q=n1842 
Xclk_r_REG415_S1 DFFQX1TR $PINS D=pe_in_pk_int_A__1__6_ CK=CTS_5 Q=n1841 
Xclk_r_REG413_S1 DFFQX1TR $PINS D=pe_in_pk_int_A__1__5_ CK=CTS_5 Q=n1840 
Xclk_r_REG412_S1 DFFQX1TR $PINS D=pe_in_pk_int_A__1__4_ CK=CTS_5 Q=n1839 
Xclk_r_REG410_S1 DFFQX1TR $PINS D=pe_in_pk_int_A__1__3_ CK=CTS_5 Q=n1838 
Xclk_r_REG408_S1 DFFQX1TR $PINS D=pe_in_pk_int_A__1__2_ CK=CTS_5 Q=n1837 
Xclk_r_REG406_S1 DFFQX1TR $PINS D=pe_in_pk_int_A__1__1_ CK=CTS_5 Q=n1836 
Xclk_r_REG404_S1 DFFQX1TR $PINS D=pe_in_pk_int_A__1__0_ CK=CTS_5 Q=n1835 
Xclk_r_REG403_S1 DFFQX1TR $PINS D=pe_in_pk_int_A__0__7_ CK=CTS_11 Q=n1834 
Xclk_r_REG401_S1 DFFQX1TR $PINS D=pe_in_pk_int_A__0__6_ CK=CTS_11 Q=n1833 
Xclk_r_REG399_S1 DFFQX1TR $PINS D=pe_in_pk_int_A__0__5_ CK=CTS_11 Q=n1832 
Xclk_r_REG397_S1 DFFQX1TR $PINS D=pe_in_pk_int_A__0__4_ CK=CTS_11 Q=n1831 
Xclk_r_REG395_S1 DFFQX1TR $PINS D=pe_in_pk_int_A__0__3_ CK=CTS_11 Q=n1830 
Xclk_r_REG393_S1 DFFQX1TR $PINS D=pe_in_pk_int_A__0__2_ CK=CTS_11 Q=n1829 
Xclk_r_REG391_S1 DFFQX1TR $PINS D=pe_in_pk_int_A__0__1_ CK=CTS_11 Q=n1828 
Xclk_r_REG389_S1 DFFQX1TR $PINS D=pe_in_pk_int_A__0__0_ CK=CTS_11 Q=n1827 
Xclk_r_REG384_S3 DFFQX1TR $PINS D=PE_top0_ST_ADD<0> CK=CTS_3 Q=n1822 
Xclk_r_REG385_S4 DFFQX1TR $PINS D=pe_out_pk_PE_state__0_ CK=CTS_12 Q=n1819 
Xclk_r_REG379_S3 DFFQX1TR $PINS D=pe_out_pk_PE_state__1_ CK=CTS_12 Q=n1818 
Xclk_r_REG373_S3 DFFQX1TR $PINS D=pe_out_pk_PE_state__2_ CK=CTS_12 Q=n1817 
Xclk_r_REG383_S2 DFFQX1TR $PINS D=PE_top0_ST_MULT<0> CK=CTS_3 Q=n1816 
Xclk_r_REG377_S1 DFFQX1TR $PINS D=PE_top0_ST_MULT<1> CK=CTS_3 Q=n1815 
Xclk_r_REG371_S1 DFFQX1TR $PINS D=PE_top0_ST_MULT<2> CK=CTS_3 Q=n1814 
Xclk_r_REG382_S1 DFFQX1TR $PINS D=PE_top0_buff_mult_arr0_state_int2<0> CK=CTS_2 
+ Q=n1813 
Xclk_r_REG376_S1 DFFQX1TR $PINS D=PE_top0_buff_mult_arr0_state_int2<1> CK=CTS_2 
+ Q=n1812 
Xclk_r_REG370_S1 DFFQX1TR $PINS D=PE_top0_buff_mult_arr0_state_int2<2> CK=CTS_2 
+ Q=n1811 
Xclk_r_REG381_S1 DFFQX1TR $PINS D=PE_top0_buff_mult_arr0_state_int1<0> CK=CTS_2 
+ Q=n1810 
Xclk_r_REG375_S1 DFFQX1TR $PINS D=PE_top0_buff_mult_arr0_state_int1<1> CK=CTS_2 
+ Q=n1809 
Xclk_r_REG369_S1 DFFQX1TR $PINS D=PE_top0_buff_mult_arr0_state_int1<2> CK=CTS_2 
+ Q=n1808 
Xclk_r_REG131_S3 DFFQX1TR $PINS D=n1397 CK=CTS_3 Q=n1805 
Xclk_r_REG192_S3 DFFQX1TR $PINS D=n1396 CK=CTS_3 Q=n1804 
Xclk_r_REG11_S3 DFFQX1TR $PINS D=pe_out_pk_data__7_ CK=CTS_12 Q=n1803 
Xclk_r_REG14_S3 DFFQX1TR $PINS D=pe_out_pk_data__6_ CK=CTS_12 Q=n1802 
Xclk_r_REG17_S3 DFFQX1TR $PINS D=pe_out_pk_data__5_ CK=CTS_12 Q=n1800 
Xclk_r_REG20_S3 DFFQX1TR $PINS D=pe_out_pk_data__4_ CK=CTS_12 Q=n1798 
Xclk_r_REG23_S3 DFFQX1TR $PINS D=pe_out_pk_data__3_ CK=CTS_12 Q=n1796 
Xclk_r_REG9_S3 DFFQX1TR $PINS D=pe_out_pk_data__2_ CK=CTS_3 Q=n1794 
Xclk_r_REG130_S3 DFFQX1TR $PINS D=pe_out_pk_data__1_ CK=CTS_3 Q=n1792 
Xclk_r_REG191_S3 DFFQX1TR $PINS D=pe_out_pk_data__0_ CK=CTS_3 Q=n1790 
Xclk_r_REG28_S2 DFFQX1TR $PINS D=PE_top0_OUT_ADD<7> CK=CTS_12 Q=n1788 
Xclk_r_REG29_S2 DFFQX1TR $PINS D=PE_top0_OUT_ADD<6> CK=CTS_12 Q=n1787 
Xclk_r_REG129_S2 DFFQX1TR $PINS D=PE_top0_OUT_ADD<1> CK=CTS_3 Q=n1782 
Xclk_r_REG188_S3 DFFQX1TR $PINS 
+ D=PE_top0_buff_mult_arr0_genblk1_1__buffer_mult0_MULT_single0_out1_0_ CK=CTS_7 
+ Q=n1780 
Xclk_r_REG212_S3 DFFQX1TR $PINS 
+ D=PE_top0_buff_mult_arr0_genblk1_2__buffer_mult0_MULT_single0_out1_0_ CK=CTS_1 
+ Q=n1779 
Xclk_r_REG214_S3 DFFQX1TR $PINS 
+ D=PE_top0_buff_mult_arr0_genblk1_3__buffer_mult0_MULT_single0_out1_0_ CK=CTS_2 
+ Q=n1778 
Xclk_r_REG233_S3 DFFQX1TR $PINS 
+ D=PE_top0_buff_mult_arr0_genblk1_0__buffer_mult0_MULT_single0_out1_0_ CK=CTS_7 
+ Q=n1777 
Xclk_r_REG189_S1 DFFQX1TR $PINS D=PE_top0_adder0_out_int2<0> CK=CTS_1 Q=n1776 
Xclk_r_REG7_S1 DFFQX1TR $PINS D=PE_top0_DP_OP_17J1_122_4844_n35 CK=CTS_1 
+ Q=n1774 
Xclk_r_REG32_S1 DFFQX1TR $PINS D=PE_top0_DP_OP_17J1_122_4844_n34 CK=CTS_1 
+ Q=n1773 
Xclk_r_REG33_S1 DFFQX1TR $PINS D=PE_top0_DP_OP_17J1_122_4844_n32 CK=CTS_1 
+ Q=n1772 
Xclk_r_REG34_S1 DFFQX1TR $PINS D=PE_top0_DP_OP_17J1_122_4844_n31 CK=CTS_1 
+ Q=n1771 
Xclk_r_REG39_S1 DFFQX1TR $PINS D=PE_top0_DP_OP_17J1_122_4844_n24 CK=CTS_7 
+ Q=n1767 
Xclk_r_REG40_S1 DFFQX1TR $PINS D=PE_top0_DP_OP_17J1_122_4844_n18 CK=CTS_7 
+ Q=n1766 
Xclk_r_REG133_S1 DFFQX1TR $PINS D=PE_top0_DP_OP_17J1_122_4844_n37 CK=CTS_1 
+ Q=n1760 
Xclk_r_REG323_S2 DFFQX1TR $PINS D=n2273 CK=CTS_11 Q=n1758 
Xclk_r_REG279_S2 DFFQX1TR $PINS D=n2272 CK=CTS_11 Q=n1757 
Xclk_r_REG235_S2 DFFQX1TR $PINS D=n2271 CK=CTS_11 Q=n1756 
Xclk_r_REG125_S2 DFFQX1TR $PINS D=n2269 CK=CTS_11 Q=n1754 
Xclk_r_REG500_S2 DFFQX1TR $PINS D=n2266 CK=CTS_8 Q=n1752 
Xclk_r_REG303_S2 DFFQX1TR $PINS D=n2263 CK=CTS_2 Q=n1750 
Xclk_r_REG259_S2 DFFQX1TR $PINS D=n2262 CK=CTS_6 Q=n1749 
Xclk_r_REG82_S2 DFFQX1TR $PINS D=n2259 CK=CTS_6 Q=n1746 
Xclk_r_REG260_S2 DFFQX1TR $PINS D=n2252 CK=CTS_2 Q=n1741 
Xclk_r_REG215_S2 DFFQX1TR $PINS D=n2251 CK=CTS_1 Q=n1740 
Xclk_r_REG139_S2 DFFQX1TR $PINS D=n2240 CK=CTS_7 Q=n1731 
Xclk_r_REG52_S2 DFFQX1TR $PINS D=n2239 CK=CTS_7 Q=n1730 
Xclk_r_REG462_S2 DFFQX1TR $PINS D=n2236 CK=CTS_7 Q=n1728 
Xclk_r_REG387_S2 DFFHQX2TR $PINS D=n2235 CK=CTS_7 Q=n1764 
Xclk_r_REG545_S1 DFFHQX2TR $PINS D=n2237 CK=CTS_7 Q=n1870 
Xclk_r_REG546_S1 DFFHQX1TR $PINS D=n2247 CK=CTS_2 Q=n1869 
Xclk_r_REG548_S1 DFFHQX1TR $PINS D=n2267 CK=CTS_11 Q=n1867 
Xclk_r_REG453_S1 DFFQX4TR $PINS D=n2245 CK=CTS_1 Q=n1763 
Xclk_r_REG449_S2 DFFHQX1TR $PINS D=n2265 CK=CTS_11 Q=n1761 
Xclk_r_REG547_S1 DFFHQX2TR $PINS D=n2257 CK=CTS_2 Q=n1868 
Xclk_r_REG454_S1 DFFQX4TR $PINS D=n2255 CK=CTS_2 Q=n1762 
Xclk_r_REG374_S4 DFFQX1TR $PINS D=n2276 CK=CTS_9 Q=pk_out_PE_state__2_ 
Xclk_r_REG380_S4 DFFQX1TR $PINS D=n2277 CK=CTS_9 Q=pk_out_PE_state__1_ 
Xclk_r_REG386_S5 DFFQX1TR $PINS D=n2278 CK=CTS_9 Q=pk_out_PE_state__0_ 
Xclk_r_REG13_S4 DFFQX1TR $PINS D=n2275 CK=CTS_12 Q=n1823 
Xclk_r_REG16_S4 DFFQX1TR $PINS D=n1802 CK=CTS_12 Q=n1801 
Xclk_r_REG19_S4 DFFQX1TR $PINS D=n1800 CK=CTS_12 Q=n1799 
Xclk_r_REG22_S4 DFFQX1TR $PINS D=n1798 CK=CTS_12 Q=n1797 
Xclk_r_REG25_S4 DFFQX1TR $PINS D=n1796 CK=CTS_12 Q=n1795 
Xclk_r_REG26_S4 DFFQX1TR $PINS D=n1794 CK=CTS_3 Q=n1793 
Xclk_r_REG132_S4 DFFQX1TR $PINS D=n1792 CK=CTS_3 Q=n1791 
Xclk_r_REG193_S4 DFFQX1TR $PINS D=n1790 CK=CTS_3 Q=n1789 