$ Spice netlist generated by v2lvs
$ v2021.3_15.9    Tue Jul 6 13:44:20 PDT 2021
.INCLUDE "/afs/umich.edu/class/eecs627/ibm13/artisan/current/aci/sc-x/lvs_netlist/ibm13.cdl" 
.INCLUDE "/afs/umich.edu/class/eecs627/w23/lab_resource/lab3/reset_driver.cdl" 
*.BUSDELIMITER < 

.SUBCKT PE_POOL clk reset pe_in_pk_PE_state__2_ pe_in_pk_PE_state__1_ 
+ pe_in_pk_PE_state__0_ pe_in_pk_A__3__7_ pe_in_pk_A__3__6_ pe_in_pk_A__3__5_ 
+ pe_in_pk_A__3__4_ pe_in_pk_A__3__3_ pe_in_pk_A__3__2_ pe_in_pk_A__3__1_ 
+ pe_in_pk_A__3__0_ pe_in_pk_A__2__7_ pe_in_pk_A__2__6_ pe_in_pk_A__2__5_ 
+ pe_in_pk_A__2__4_ pe_in_pk_A__2__3_ pe_in_pk_A__2__2_ pe_in_pk_A__2__1_ 
+ pe_in_pk_A__2__0_ pe_in_pk_A__1__7_ pe_in_pk_A__1__6_ pe_in_pk_A__1__5_ 
+ pe_in_pk_A__1__4_ pe_in_pk_A__1__3_ pe_in_pk_A__1__2_ pe_in_pk_A__1__1_ 
+ pe_in_pk_A__1__0_ pe_in_pk_A__0__7_ pe_in_pk_A__0__6_ pe_in_pk_A__0__5_ 
+ pe_in_pk_A__0__4_ pe_in_pk_A__0__3_ pe_in_pk_A__0__2_ pe_in_pk_A__0__1_ 
+ pe_in_pk_A__0__0_ pe_in_pk_wrb_data__7_ pe_in_pk_wrb_data__6_ 
+ pe_in_pk_wrb_data__5_ pe_in_pk_wrb_data__4_ pe_in_pk_wrb_data__3_ 
+ pe_in_pk_wrb_data__2_ pe_in_pk_wrb_data__1_ pe_in_pk_wrb_data__0_ 
+ pe_in_pk_wrb_addr__3_ pe_in_pk_wrb_addr__2_ pe_in_pk_wrb_addr__1_ 
+ pe_in_pk_wrb_addr__0_ pe_in_pk_wrb__3_ pe_in_pk_wrb__2_ pe_in_pk_wrb__1_ 
+ pe_in_pk_wrb__0_ pe_in_pk_rdb_addr__3_ pe_in_pk_rdb_addr__2_ 
+ pe_in_pk_rdb_addr__1_ pe_in_pk_rdb_addr__0_ pk_out_PE_state__2_ 
+ pk_out_PE_state__1_ pk_out_PE_state__0_ pk_out_data__7_ pk_out_data__6_ 
+ pk_out_data__5_ pk_out_data__4_ pk_out_data__3_ pk_out_data__2_ 
+ pk_out_data__1_ pk_out_data__0_ 
*.CONNECT pk_out_data__7_ VSS
XPLACEDFE_OCPC231_pe_in_pk_rdb_addr__1 CLKBUFX2TR $PINS A=pe_in_pk_rdb_addr__1_ 
+ Y=FE_OCPN231_pe_in_pk_rdb_addr__1 
XPLACEDFE_OCPC232_pe_in_pk_rdb_addr__2 CLKBUFX2TR $PINS A=pe_in_pk_rdb_addr__2_ 
+ Y=FE_OCPN150_pe_in_pk_rdb_addr__2 
XPLACEDFE_OFC231_n1326 CLKINVX4TR $PINS A=n1326 Y=n408 
XCTS_ccl_a_inv_00009 CLKINVX20TR $PINS A=CTS_10 Y=CTS_9 
XCTS_ccl_a_inv_00007 CLKINVX20TR $PINS A=CTS_10 Y=CTS_8 
XCTS_ccl_a_inv_00003 CLKINVX20TR $PINS A=CTS_10 Y=CTS_12 
XCTS_ccl_a_inv_00002 CLKINVX20TR $PINS A=CTS_10 Y=CTS_11 
XCTS_ccl_a_inv_00012 CLKINVX20TR $PINS A=CTS_13 Y=CTS_10 
XCTS_ccl_a_inv_00008 CLKINVX20TR $PINS A=CTS_5 Y=CTS_4 
XCTS_ccl_a_inv_00006 CLKINVX20TR $PINS A=CTS_5 Y=CTS_7 
XCTS_ccl_a_inv_00005 CLKINVX20TR $PINS A=CTS_5 Y=CTS_6 
XCTS_ccl_a_inv_00011 CLKINVX16TR $PINS A=CTS_13 Y=CTS_5 
XCTS_ccl_a_inv_00004 CLKINVX20TR $PINS A=CTS_1 Y=CTS_3 
XCTS_ccl_a_inv_00001 CLKINVX20TR $PINS A=CTS_1 Y=CTS_2 
XCTS_ccl_a_inv_00010 CLKINVX12TR $PINS A=CTS_13 Y=CTS_1 
XCTS_ccl_a_inv_00013 CLKINVX20TR $PINS A=CTS_14 Y=CTS_13 
XCTS_ccl_a_inv_00014 CLKINVX8TR $PINS A=clk Y=CTS_14 
XPLACEDFE_OCPC230_n206 BUFX3TR $PINS A=n206 Y=FE_OCPN149_n206 
XPLACEDFE_OFC229_reset CLKINVX2TR $PINS A=FE_OFN144_reset Y=FE_OFN148_reset 
XPLACEDFE_OFC228_reset INVX2TR $PINS A=FE_OFN144_reset Y=FE_OFN147_reset 
XPLACEDFE_OFC227_reset CLKINVX4TR $PINS A=FE_OFN27_FE_DBTN3_reset 
+ Y=FE_OFN146_reset 
XPLACEDFE_OFC226_reset CLKINVX2TR $PINS A=FE_OFN27_FE_DBTN3_reset 
+ Y=FE_OFN145_reset 
XPLACEDFE_OFC225_reset CLKINVX2TR $PINS A=FE_OFN3_reset Y=FE_OFN144_reset 
XPLACEDFE_OFC224_reset CLKINVX2TR $PINS A=FE_DBTN3_reset Y=FE_OFN143_reset 
XPLACEDFE_OFC223_reset CLKBUFX2TR $PINS A=FE_DBTN3_reset 
+ Y=FE_OFN28_FE_DBTN3_reset 
XPLACEDFE_OFC222_reset CLKINVX2TR $PINS A=FE_OFN1_reset 
+ Y=FE_OFN27_FE_DBTN3_reset 
XPLACEDFE_OFC221_reset CLKBUFX2TR $PINS A=FE_OFN1_reset 
+ Y=FE_OFN26_FE_DBTN3_reset 
XPLACEDFE_OFC220_reset INVX4TR $PINS A=FE_OFN5_reset Y=FE_OFN3_reset 
XPLACEDFE_OFC219_reset CLKINVX2TR $PINS A=FE_OFN5_reset Y=FE_DBTN3_reset 
XPLACEDFE_OFC218_reset CLKINVX2TR $PINS A=FE_OFN5_reset Y=FE_OFN2_reset 
XPLACEDFE_OFC217_reset CLKBUFX3TR $PINS A=FE_OFN5_reset Y=FE_OFN1_reset 
XPLACEDFE_OFC216_reset INVX4TR $PINS A=reset Y=FE_OFN5_reset 
XPLACEDFE_OFC215_n881 INVX2TR $PINS A=FE_OFN49_n881 Y=n1011 
XPLACEDFE_OFC214_n881 CLKBUFX2TR $PINS A=n881 Y=FE_OFN49_n881 
XPLACEDFE_OFC213_n880 INVX2TR $PINS A=FE_OFN48_n880 Y=n1009 
XPLACEDFE_OFC212_n880 CLKBUFX2TR $PINS A=n880 Y=FE_OFN48_n880 
XPLACEDFE_OFC211_n64 BUFX3TR $PINS A=FE_OFN10_n64 Y=FE_OFN142_n64 
XPLACEDFE_OFC210_n64 BUFX6TR $PINS A=n64 Y=FE_OFN10_n64 
XPLACEDFE_OFC209_n903 CLKINVX2TR $PINS A=n956 Y=FE_OFN141_n903 
XPLACEDFE_OFC208_n903 CLKINVX2TR $PINS A=n956 Y=FE_OFN140_n903 
XPLACEDFE_OFC207_n903 CLKINVX2TR $PINS A=n956 Y=FE_OFN139_n903 
XPLACEDFE_OFC206_n903 CLKINVX2TR $PINS A=n956 Y=FE_OFN138_n903 
XPLACEDFE_OFC205_n903 CLKINVX2TR $PINS A=n903 Y=n956 
XPLACEDFE_OFC204_n901 CLKINVX2TR $PINS A=n954 Y=FE_OFN137_n901 
XPLACEDFE_OFC203_n901 CLKINVX2TR $PINS A=n954 Y=FE_OFN136_n901 
XPLACEDFE_OFC202_n901 CLKINVX2TR $PINS A=n954 Y=FE_OFN135_n901 
XPLACEDFE_OFC201_n901 CLKINVX2TR $PINS A=n954 Y=FE_OFN134_n901 
XPLACEDFE_OFC200_n901 CLKINVX2TR $PINS A=n954 Y=FE_OFN133_n901 
XPLACEDFE_OFC199_n901 CLKINVX2TR $PINS A=n954 Y=FE_OFN132_n901 
XPLACEDFE_OFC198_n901 CLKINVX2TR $PINS A=n954 Y=FE_OFN131_n901 
XPLACEDFE_OFC197_n901 CLKINVX2TR $PINS A=n901 Y=n954 
XPLACEDFE_OFC196_n928 CLKINVX2TR $PINS A=n950 Y=FE_OFN130_n928 
XPLACEDFE_OFC195_n928 CLKINVX2TR $PINS A=n950 Y=FE_OFN129_n928 
XPLACEDFE_OFC194_n928 CLKINVX2TR $PINS A=n950 Y=FE_OFN128_n928 
XPLACEDFE_OFC193_n928 CLKINVX2TR $PINS A=n950 Y=FE_OFN127_n928 
XPLACEDFE_OFC192_n928 CLKINVX2TR $PINS A=n950 Y=FE_OFN126_n928 
XPLACEDFE_OFC191_n928 INVX2TR $PINS A=n928 Y=n950 
XPLACEDFE_OFC190_n902 CLKINVX2TR $PINS A=n960 Y=FE_OFN125_n902 
XPLACEDFE_OFC189_n902 CLKINVX2TR $PINS A=n960 Y=FE_OFN124_n902 
XPLACEDFE_OFC188_n902 CLKINVX2TR $PINS A=n960 Y=FE_OFN123_n902 
XPLACEDFE_OFC187_n902 CLKINVX2TR $PINS A=n960 Y=FE_OFN52_n902 
XPLACEDFE_OFC186_n902 CLKINVX2TR $PINS A=n902 Y=n960 
XPLACEDFE_OFC185_n884 INVX2TR $PINS A=n1015 Y=FE_OFN122_n884 
XPLACEDFE_OFC184_n884 INVX2TR $PINS A=n884 Y=n1015 
XPLACEDFE_OFC183_n908 CLKINVX2TR $PINS A=n1007 Y=FE_OFN121_n908 
XPLACEDFE_OFC182_n908 CLKINVX2TR $PINS A=n1007 Y=FE_OFN120_n908 
XPLACEDFE_OFC181_n908 CLKINVX2TR $PINS A=n1007 Y=FE_OFN119_n908 
XPLACEDFE_OFC180_n908 INVX2TR $PINS A=n908 Y=n1007 
XPLACEDFE_OFC179_n918 CLKINVX2TR $PINS A=n972 Y=FE_OFN118_n918 
XPLACEDFE_OFC178_n918 CLKINVX2TR $PINS A=n972 Y=FE_OFN117_n918 
XPLACEDFE_OFC177_n918 CLKINVX2TR $PINS A=n972 Y=FE_OFN116_n918 
XPLACEDFE_OFC176_n918 CLKINVX2TR $PINS A=n972 Y=FE_OFN115_n918 
XPLACEDFE_OFC175_n918 CLKINVX2TR $PINS A=n972 Y=FE_OFN114_n918 
XPLACEDFE_OFC174_n918 INVX2TR $PINS A=n918 Y=n972 
XPLACEDFE_OFC173_n909 CLKINVX2TR $PINS A=FE_OFN53_n909 Y=FE_OFN113_n909 
XPLACEDFE_OFC172_n909 CLKINVX2TR $PINS A=FE_OFN53_n909 Y=FE_OFN112_n909 
XPLACEDFE_OFC171_n909 CLKINVX2TR $PINS A=FE_OFN53_n909 Y=FE_OFN111_n909 
XPLACEDFE_OFC170_n909 CLKINVX2TR $PINS A=FE_OFN53_n909 Y=FE_OFN110_n909 
XPLACEDFE_OFC169_n909 CLKINVX2TR $PINS A=FE_OFN53_n909 Y=n982 
XPLACEDFE_OFC168_n909 INVX2TR $PINS A=n909 Y=FE_OFN53_n909 
XPLACEDFE_OFC167_n153 CLKBUFX2TR $PINS A=FE_OFN14_n153 Y=FE_OFN109_n153 
XPLACEDFE_OFC166_n153 CLKBUFX2TR $PINS A=FE_OFN14_n153 Y=FE_OFN15_n153 
XPLACEDFE_OFC165_n153 CLKBUFX2TR $PINS A=n153 Y=FE_OFN14_n153 
XPLACEDFE_OFC164_n890 CLKINVX2TR $PINS A=n997 Y=FE_OFN108_n890 
XPLACEDFE_OFC163_n890 INVX2TR $PINS A=n997 Y=FE_OFN107_n890 
XPLACEDFE_OFC162_n890 CLKINVX2TR $PINS A=n997 Y=FE_OFN106_n890 
XPLACEDFE_OFC161_n890 INVX2TR $PINS A=n890 Y=n997 
XPLACEDFE_OFC160_n871 CLKINVX2TR $PINS A=n745 Y=FE_OFN105_n871 
XPLACEDFE_OFC159_n871 CLKINVX2TR $PINS A=n745 Y=FE_OFN104_n871 
XPLACEDFE_OFC158_n871 INVX2TR $PINS A=n871 Y=n745 
XPLACEDFE_OFC157_n876 CLKINVX2TR $PINS A=n986 Y=FE_OFN103_n876 
XPLACEDFE_OFC156_n876 CLKINVX2TR $PINS A=n986 Y=FE_OFN102_n876 
XPLACEDFE_OFC155_n876 CLKINVX2TR $PINS A=n986 Y=FE_OFN101_n876 
XPLACEDFE_OFC154_n876 CLKINVX2TR $PINS A=n986 Y=FE_OFN100_n876 
XPLACEDFE_OFC153_n876 CLKINVX2TR $PINS A=n986 Y=FE_OFN99_n876 
XPLACEDFE_OFC152_n876 CLKINVX2TR $PINS A=n986 Y=FE_OFN98_n876 
XPLACEDFE_OFC151_n876 CLKINVX2TR $PINS A=n986 Y=FE_OFN97_n876 
XPLACEDFE_OFC150_n876 INVX2TR $PINS A=n876 Y=n986 
XPLACEDFE_OFC149_n877 CLKINVX2TR $PINS A=n988 Y=FE_OFN96_n877 
XPLACEDFE_OFC148_n877 INVX2TR $PINS A=n877 Y=n988 
XPLACEDFE_OFC147_n935 INVX2TR $PINS A=n978 Y=FE_OFN95_n935 
XPLACEDFE_OFC145_n935 INVX2TR $PINS A=n935 Y=n978 
XPLACEDFE_OFC144_n922 CLKINVX2TR $PINS A=n992 Y=FE_OFN93_n922 
XPLACEDFE_OFC143_n922 CLKINVX2TR $PINS A=n992 Y=FE_OFN92_n922 
XPLACEDFE_OFC142_n922 CLKINVX2TR $PINS A=n992 Y=FE_OFN91_n922 
XPLACEDFE_OFC141_n922 CLKINVX2TR $PINS A=n992 Y=FE_OFN90_n922 
XPLACEDFE_OFC140_n922 CLKINVX2TR $PINS A=n992 Y=FE_OFN89_n922 
XPLACEDFE_OFC139_n922 INVX2TR $PINS A=n922 Y=n992 
XPLACEDFE_OFC138_n60 BUFX3TR $PINS A=FE_OFN8_n60 Y=FE_OFN88_n60 
XPLACEDFE_OFC137_n60 CLKBUFX2TR $PINS A=FE_OFN8_n60 Y=FE_OFN7_n60 
XPLACEDFE_OFC136_n60 CLKBUFX2TR $PINS A=n60 Y=FE_OFN8_n60 
XPLACEDFE_OFC135_n875 CLKINVX2TR $PINS A=n984 Y=FE_OFN87_n875 
XPLACEDFE_OFC134_n875 CLKINVX2TR $PINS A=n984 Y=FE_OFN86_n875 
XPLACEDFE_OFC133_n875 CLKINVX2TR $PINS A=n984 Y=FE_OFN85_n875 
XPLACEDFE_OFC132_n875 CLKINVX2TR $PINS A=n984 Y=FE_OFN84_n875 
XPLACEDFE_OFC131_n875 CLKINVX2TR $PINS A=n984 Y=FE_OFN83_n875 
XPLACEDFE_OFC130_n875 INVX2TR $PINS A=n875 Y=n984 
XPLACEDFE_OFC129_n916 INVX2TR $PINS A=FE_OFN54_n916 Y=n969 
XPLACEDFE_OFC128_n916 CLKBUFX2TR $PINS A=n916 Y=FE_OFN54_n916 
XPLACEDFE_OFC127_n2107 BUFX3TR $PINS A=FE_DBTN0_n2107 Y=FE_OFN0_FE_DBTN0_n2107 
XPLACEDFE_OFC126_n2107 INVX4TR $PINS A=n2107 Y=FE_DBTN0_n2107 
XPLACEDFE_OFC125_n914 CLKINVX2TR $PINS A=n914 Y=FE_OFN82_n914 
XPLACEDFE_OFC122_n919 CLKINVX1TR $PINS A=FE_OFN55_n919 Y=FE_OFN80_n919 
XPLACEDFE_OFC120_n919 INVX2TR $PINS A=n919 Y=FE_OFN55_n919 
XPLACEDFE_OFC119_n147 CLKBUFX2TR $PINS A=FE_OFN11_n147 Y=FE_OFN13_n147 
XPLACEDFE_OFC118_n147 CLKBUFX2TR $PINS A=FE_OFN11_n147 Y=FE_OFN12_n147 
XPLACEDFE_OFC117_n147 BUFX3TR $PINS A=n147 Y=FE_OFN11_n147 
XPLACEDFE_OFC116_n157 INVX4TR $PINS A=FE_OFN24_n157 Y=FE_OFN79_n157 
XPLACEDFE_OFC115_n157 INVX2TR $PINS A=FE_OFN24_n157 Y=FE_OFN78_n157 
XPLACEDFE_OFC114_n157 CLKINVX2TR $PINS A=FE_OFN25_n157 Y=FE_OFN24_n157 
XPLACEDFE_OFC113_n157 CLKBUFX2TR $PINS A=n157 Y=FE_OFN25_n157 
XPLACEDFE_OFC112_n926 INVX2TR $PINS A=n980 Y=FE_OFN77_n926 
XPLACEDFE_OFC111_n926 INVX2TR $PINS A=n926 Y=n980 
XPLACEDFE_OFC110_n920 CLKINVX2TR $PINS A=n976 Y=FE_OFN76_n920 
XPLACEDFE_OFC109_n920 CLKINVX2TR $PINS A=n976 Y=FE_OFN75_n920 
XPLACEDFE_OFC108_n920 CLKINVX2TR $PINS A=n976 Y=FE_OFN74_n920 
XPLACEDFE_OFC107_n920 INVX2TR $PINS A=n920 Y=n976 
XPLACEDFE_OFC106_n896 CLKINVX2TR $PINS A=FE_OFN50_n896 Y=FE_OFN73_n896 
XPLACEDFE_OFC105_n896 CLKINVX1TR $PINS A=FE_OFN50_n896 Y=FE_OFN72_n896 
XPLACEDFE_OFC104_n896 INVX2TR $PINS A=FE_OFN50_n896 Y=n1001 
XPLACEDFE_OFC103_n896 INVX2TR $PINS A=n896 Y=FE_OFN50_n896 
XPLACEDFE_OFC102_n894 CLKINVX2TR $PINS A=n999 Y=FE_OFN71_n894 
XPLACEDFE_OFC101_n894 CLKINVX2TR $PINS A=n999 Y=FE_OFN70_n894 
XPLACEDFE_OFC100_n894 CLKINVX2TR $PINS A=n999 Y=FE_OFN69_n894 
XPLACEDFE_OFC99_n894 INVX2TR $PINS A=n894 Y=n999 
XPLACEDFE_OFC98_n946 BUFX3TR $PINS A=n946 Y=FE_OFN45_n946 
XPLACEDFE_OFC97_n946 BUFX3TR $PINS A=n946 Y=FE_OFN44_n946 
XPLACEDFE_OFC96_n940 CLKBUFX2TR $PINS A=n940 Y=FE_OFN37_n940 
XPLACEDFE_OFC95_n940 BUFX3TR $PINS A=n940 Y=FE_OFN36_n940 
XPLACEDFE_OFC94_n899 INVX2TR $PINS A=n899 Y=n1005 
XPLACEDFE_OFC93_n897 INVX2TR $PINS A=n1003 Y=FE_OFN68_n897 
XPLACEDFE_OFC92_n897 CLKINVX2TR $PINS A=n1003 Y=FE_OFN67_n897 
XPLACEDFE_OFC91_n897 CLKINVX2TR $PINS A=n1003 Y=FE_OFN66_n897 
XPLACEDFE_OFC90_n897 INVX2TR $PINS A=n897 Y=n1003 
XPLACEDFE_OFC89_n945 CLKBUFX2TR $PINS A=n945 Y=FE_OFN42_n945 
XPLACEDFE_OFC88_n945 BUFX3TR $PINS A=n945 Y=FE_OFN43_n945 
XPLACEDFE_OFC87_n930 INVX2TR $PINS A=n958 Y=FE_OFN65_n930 
XPLACEDFE_OFC86_n930 INVX2TR $PINS A=n930 Y=n958 
XPLACEDFE_OFC85_n941 BUFX3TR $PINS A=n941 Y=FE_OFN39_n941 
XPLACEDFE_OFC84_n941 BUFX3TR $PINS A=n941 Y=FE_OFN38_n941 
XPLACEDFE_OFC83_n944 BUFX3TR $PINS A=n944 Y=FE_OFN41_n944 
XPLACEDFE_OFC82_n944 BUFX3TR $PINS A=n944 Y=FE_OFN40_n944 
XPLACEDFE_OFC81_n155 CLKINVX2TR $PINS A=FE_OFN19_n155 Y=FE_OFN64_n155 
XPLACEDFE_OFC80_n155 INVX2TR $PINS A=FE_OFN19_n155 Y=FE_OFN18_n155 
XPLACEDFE_OFC79_n155 CLKINVX2TR $PINS A=n155 Y=FE_OFN19_n155 
XPLACEDFE_OFC78_n155 CLKBUFX2TR $PINS A=n155 Y=FE_OFN20_n155 
XPLACEDFE_OFC77_n886 INVX2TR $PINS A=n1017 Y=FE_OFN63_n886 
XPLACEDFE_OFC76_n886 INVX2TR $PINS A=n886 Y=n1017 
XPLACEDFE_OFC75_n924 INVX2TR $PINS A=n924 Y=n994 
XPLACEDFE_OFC74_n887 INVX2TR $PINS A=n1019 Y=FE_OFN62_n887 
XPLACEDFE_OFC73_n887 INVX2TR $PINS A=n887 Y=n1019 
XPLACEDFE_OFC72_n947 CLKBUFX2TR $PINS A=n947 Y=FE_OFN61_n947 
XPLACEDFE_OFC71_n947 CLKBUFX2TR $PINS A=n947 Y=FE_OFN47_n947 
XPLACEDFE_OFC70_n947 CLKBUFX2TR $PINS A=n947 Y=FE_OFN46_n947 
XPLACEDFE_OFC69_n156 INVX2TR $PINS A=FE_OFN22_n156 Y=FE_OFN60_n156 
XPLACEDFE_OFC68_n156 CLKINVX2TR $PINS A=FE_OFN22_n156 Y=FE_OFN23_n156 
XPLACEDFE_OFC67_n156 CLKINVX2TR $PINS A=n156 Y=FE_OFN22_n156 
XPLACEDFE_OFC66_n156 CLKBUFX2TR $PINS A=n156 Y=FE_OFN21_n156 
XPLACEDFE_OFC65_n882 INVX2TR $PINS A=FE_OFN32_n882 Y=FE_OFN59_n882 
XPLACEDFE_OFC64_n882 INVX2TR $PINS A=FE_OFN32_n882 Y=FE_OFN58_n882 
XPLACEDFE_OFC63_n882 CLKINVX2TR $PINS A=n882 Y=FE_OFN32_n882 
XPLACEDFE_OFC62_n882 CLKBUFX2TR $PINS A=n882 Y=FE_OFN33_n882 
XPLACEDFE_OFC61_n938 BUFX3TR $PINS A=FE_OFN35_n938 Y=FE_OFN57_n938 
XPLACEDFE_OFC60_n938 CLKINVX2TR $PINS A=FE_OFN34_n938 Y=FE_OFN56_n938 
XPLACEDFE_OFC59_n938 INVX4TR $PINS A=FE_OFN34_n938 Y=FE_OFN35_n938 
XPLACEDFE_OFC58_n938 CLKINVX2TR $PINS A=n938 Y=FE_OFN34_n938 
XPLACEDFE_OFC57_n154 CLKBUFX2TR $PINS A=n154 Y=FE_OFN16_n154 
XPLACEDFE_OFC56_n154 CLKBUFX2TR $PINS A=n154 Y=FE_OFN17_n154 
XPLACEDFE_OFC31_FE_DBTN3_reset CLKBUFX2TR $PINS A=FE_OFN1_reset 
+ Y=FE_OFN31_FE_DBTN3_reset 
XPLACEDFE_OFC30_FE_DBTN3_reset CLKBUFX2TR $PINS A=FE_OFN1_reset 
+ Y=FE_OFN30_FE_DBTN3_reset 
XPLACEDFE_OFC29_FE_DBTN3_reset BUFX4TR $PINS A=FE_OFN146_reset 
+ Y=FE_OFN29_FE_DBTN3_reset 
XPLACEDFE_OFC9_n64 CLKBUFX2TR $PINS A=n64 Y=FE_OFN9_n64 
XPLACEDFE_OFC6_reset BUFX4TR $PINS A=FE_OFN4_reset Y=FE_OFN6_reset 
XPLACEDFE_OFC4_reset BUFX3TR $PINS A=FE_OFN3_reset Y=FE_OFN4_reset 
XPLACEDFE_DBTC2_pe_in_pk_wrb_addr__0 INVX2TR $PINS A=pe_in_pk_wrb_addr__0_ 
+ Y=FE_DBTN2_pe_in_pk_wrb_addr__0 
XPLACEDFE_DBTC1_n1325 INVX2TR $PINS A=n1325 Y=FE_DBTN1_n1325 
Xclk_r_REG4_S3 DFFQX1TR $PINS D=n1671 CK=CTS_9 Q=n2144 
Xclk_r_REG27_S3 DFFQX1TR $PINS D=n1669 CK=CTS_9 Q=n2142 
Xclk_r_REG538_S1 DFFQX1TR $PINS D=n1667 CK=CTS_7 Q=n2140 
Xclk_r_REG537_S1 DFFQX1TR $PINS D=n1666 CK=CTS_7 Q=n2139 
Xclk_r_REG536_S1 DFFQX1TR $PINS D=n1665 CK=CTS_8 Q=n2138 
Xclk_r_REG535_S1 DFFQX1TR $PINS D=n1664 CK=CTS_8 Q=n2137 
Xclk_r_REG534_S1 DFFQX1TR $PINS D=n1663 CK=CTS_8 Q=n2136 
Xclk_r_REG533_S1 DFFQX1TR $PINS D=n1662 CK=CTS_8 Q=n2135 
Xclk_r_REG532_S1 DFFQX1TR $PINS D=n1661 CK=CTS_6 Q=n2134 
Xclk_r_REG549_S1 DFFQX1TR $PINS D=n1659 CK=CTS_3 Q=n2132 
Xclk_r_REG548_S1 DFFQX1TR $PINS D=n1658 CK=CTS_8 Q=n2131 
Xclk_r_REG547_S1 DFFQX1TR $PINS D=n1657 CK=CTS_3 Q=n2130 
Xclk_r_REG546_S1 DFFQX1TR $PINS D=n1656 CK=CTS_3 Q=n2129 
Xclk_r_REG545_S1 DFFQX1TR $PINS D=n1655 CK=CTS_6 Q=n2128 
Xclk_r_REG544_S1 DFFQX1TR $PINS D=n1654 CK=CTS_6 Q=n2127 
Xclk_r_REG543_S1 DFFQX1TR $PINS D=n1653 CK=CTS_4 Q=n2126 
Xclk_r_REG542_S1 DFFQX1TR $PINS D=n1652 CK=CTS_4 Q=n2125 
Xclk_r_REG541_S1 DFFQX1TR $PINS D=n1651 CK=CTS_4 Q=n2124 
Xclk_r_REG540_S1 DFFQX1TR $PINS D=n1650 CK=CTS_7 Q=n2123 
Xclk_r_REG539_S1 DFFQX1TR $PINS D=n1649 CK=CTS_6 Q=n2122 
Xclk_r_REG524_S1 DFFQX1TR $PINS D=n1648 CK=CTS_6 Q=n2121 
Xclk_r_REG523_S1 DFFQX1TR $PINS D=n1647 CK=CTS_12 Q=n2120 
Xclk_r_REG522_S1 DFFQX1TR $PINS D=n1646 CK=CTS_6 Q=n2119 
Xclk_r_REG520_S1 DFFQX1TR $PINS D=n1644 CK=CTS_6 Q=n2117 
Xclk_r_REG519_S1 DFFQX1TR $PINS D=n1643 CK=CTS_6 Q=n2116 
Xclk_r_REG518_S1 DFFQX1TR $PINS D=n1642 CK=CTS_6 Q=n2115 
Xclk_r_REG517_S1 DFFQX1TR $PINS D=n1641 CK=CTS_6 Q=n2114 
Xclk_r_REG516_S1 DFFQX1TR $PINS D=n1640 CK=CTS_6 Q=n2113 
Xclk_r_REG514_S1 DFFQX1TR $PINS D=n1638 CK=CTS_6 Q=n2111 
Xclk_r_REG513_S1 DFFQX1TR $PINS D=n1637 CK=CTS_12 Q=n2110 
Xclk_r_REG528_S1 DFFQX1TR $PINS D=n1636 CK=CTS_6 Q=n2109 
Xclk_r_REG527_S1 DFFQX1TR $PINS D=n1635 CK=CTS_7 Q=n2108 
Xclk_r_REG128_S1 DFFQX1TR $PINS D=n1633 CK=CTS_6 Q=n2105 
Xclk_r_REG0_S1 DFFQX1TR $PINS D=n1632 CK=CTS_8 Q=n2104 
Xclk_r_REG471_S1 DFFQX1TR $PINS D=n1631 CK=CTS_12 Q=n2103 
Xclk_r_REG469_S1 DFFQX1TR $PINS D=n1629 CK=CTS_12 Q=n2100 
Xclk_r_REG489_S1 DFFQX1TR $PINS D=n1627 CK=CTS_6 Q=n2098 
Xclk_r_REG487_S1 DFFQX1TR $PINS D=n1625 CK=CTS_4 Q=n2095 
Xclk_r_REG480_S1 DFFQX1TR $PINS D=n1618 CK=CTS_4 Q=n2088 
Xclk_r_REG507_S1 DFFQX1TR $PINS D=n1610 CK=CTS_3 Q=n2079 
Xclk_r_REG504_S1 DFFQX1TR $PINS D=n1607 CK=CTS_3 Q=n2075 
Xclk_r_REG496_S1 DFFQX1TR $PINS D=n1599 CK=CTS_4 Q=n2067 
Xclk_r_REG493_S1 DFFQX1TR $PINS D=n1596 CK=CTS_4 Q=n2064 
Xclk_r_REG427_S1 DFFQX1TR $PINS D=n1595 CK=CTS_12 Q=n2063 
Xclk_r_REG425_S1 DFFQX1TR $PINS D=n1593 CK=CTS_12 Q=n2060 
Xclk_r_REG445_S1 DFFQX1TR $PINS D=n1591 CK=CTS_6 Q=n2058 
Xclk_r_REG443_S1 DFFQX1TR $PINS D=n1589 CK=CTS_4 Q=n2055 
Xclk_r_REG436_S1 DFFQX1TR $PINS D=n1582 CK=CTS_7 Q=n2048 
Xclk_r_REG465_S2 DFFQX1TR $PINS D=n2041 CK=CTS_9 Q=n2040 
Xclk_r_REG463_S1 DFFQX1TR $PINS D=n1574 CK=CTS_3 Q=n2039 
Xclk_r_REG460_S1 DFFQX1TR $PINS D=n1571 CK=CTS_3 Q=n2035 
Xclk_r_REG452_S1 DFFQX1TR $PINS D=n1563 CK=CTS_4 Q=n2027 
Xclk_r_REG449_S1 DFFQX1TR $PINS D=n1560 CK=CTS_4 Q=n2024 
Xclk_r_REG383_S1 DFFQX1TR $PINS D=n1559 CK=CTS_12 Q=n2023 
Xclk_r_REG381_S1 DFFQX1TR $PINS D=n1557 CK=CTS_6 Q=n2020 
Xclk_r_REG401_S1 DFFQX1TR $PINS D=n1555 CK=CTS_2 Q=n2018 
Xclk_r_REG399_S1 DFFQX1TR $PINS D=n1553 CK=CTS_4 Q=n2015 
Xclk_r_REG392_S1 DFFQX1TR $PINS D=n1546 CK=CTS_4 Q=n2008 
Xclk_r_REG419_S1 DFFQX1TR $PINS D=n1538 CK=CTS_3 Q=n1999 
Xclk_r_REG417_S1 DFFQX1TR $PINS D=n1536 CK=CTS_7 Q=n1996 
Xclk_r_REG416_S1 DFFQX1TR $PINS D=n1535 CK=CTS_3 Q=n1995 
Xclk_r_REG415_S1 DFFQX1TR $PINS D=n1534 CK=CTS_3 Q=n1994 
Xclk_r_REG408_S1 DFFQX1TR $PINS D=n1527 CK=CTS_4 Q=n1987 
Xclk_r_REG405_S1 DFFQX1TR $PINS D=n1524 CK=CTS_4 Q=n1984 
Xclk_r_REG339_S1 DFFQX1TR $PINS D=n1523 CK=CTS_9 Q=n1983 
Xclk_r_REG337_S1 DFFQX1TR $PINS D=n1521 CK=CTS_6 Q=n1980 
Xclk_r_REG357_S1 DFFQX1TR $PINS D=n1519 CK=CTS_2 Q=n1978 
Xclk_r_REG355_S1 DFFQX1TR $PINS D=n1517 CK=CTS_4 Q=n1975 
Xclk_r_REG348_S1 DFFQX1TR $PINS D=n1510 CK=CTS_4 Q=n1968 
Xclk_r_REG377_S2 DFFQX1TR $PINS D=n1961 CK=CTS_9 Q=n1960 
Xclk_r_REG375_S1 DFFQX1TR $PINS D=n1502 CK=CTS_3 Q=n1959 
Xclk_r_REG373_S1 DFFQX1TR $PINS D=n1500 CK=CTS_8 Q=n1956 
Xclk_r_REG372_S1 DFFQX1TR $PINS D=n1499 CK=CTS_3 Q=n1955 
Xclk_r_REG371_S1 DFFQX1TR $PINS D=n1498 CK=CTS_3 Q=n1954 
Xclk_r_REG364_S1 DFFQX1TR $PINS D=n1491 CK=CTS_4 Q=n1947 
Xclk_r_REG361_S1 DFFQX1TR $PINS D=n1488 CK=CTS_4 Q=n1944 
Xclk_r_REG295_S1 DFFQX1TR $PINS D=n1487 CK=CTS_12 Q=n1943 
Xclk_r_REG293_S1 DFFQX1TR $PINS D=n1485 CK=CTS_12 Q=n1940 
Xclk_r_REG313_S1 DFFQX1TR $PINS D=n1483 CK=CTS_3 Q=n1938 
Xclk_r_REG311_S1 DFFQX1TR $PINS D=n1481 CK=CTS_4 Q=n1935 
Xclk_r_REG308_S1 DFFQX1TR $PINS D=n1478 CK=CTS_7 Q=n1932 
Xclk_r_REG307_S1 DFFQX1TR $PINS D=n1477 CK=CTS_7 Q=n1931 
Xclk_r_REG306_S1 DFFQX1TR $PINS D=n1476 CK=CTS_7 Q=n1930 
Xclk_r_REG305_S1 DFFQX1TR $PINS D=n1475 CK=CTS_7 Q=n1929 
Xclk_r_REG304_S1 DFFQX1TR $PINS D=n1474 CK=CTS_4 Q=n1928 
Xclk_r_REG302_S1 DFFQX1TR $PINS D=n1472 CK=CTS_6 Q=n1926 
Xclk_r_REG300_S1 DFFQX1TR $PINS D=n1470 CK=CTS_12 Q=n1924 
Xclk_r_REG299_S1 DFFQX1TR $PINS D=n1469 CK=CTS_12 Q=n1923 
Xclk_r_REG298_S1 DFFQX1TR $PINS D=n1468 CK=CTS_12 Q=n1922 
Xclk_r_REG331_S1 DFFQX1TR $PINS D=n1466 CK=CTS_3 Q=n1919 
Xclk_r_REG329_S1 DFFQX1TR $PINS D=n1464 CK=CTS_8 Q=n1916 
Xclk_r_REG328_S1 DFFQX1TR $PINS D=n1463 CK=CTS_3 Q=n1915 
Xclk_r_REG327_S1 DFFQX1TR $PINS D=n1462 CK=CTS_3 Q=n1914 
Xclk_r_REG320_S1 DFFQX1TR $PINS D=n1455 CK=CTS_4 Q=n1907 
Xclk_r_REG317_S1 DFFQX1TR $PINS D=n1452 CK=CTS_4 Q=n1904 
Xclk_r_REG251_S1 DFFQX1TR $PINS D=n1451 CK=CTS_12 Q=n1903 
Xclk_r_REG252_S2 DFFQX1TR $PINS D=n1903 CK=CTS_12 Q=n1902 
Xclk_r_REG249_S1 DFFQX1TR $PINS D=n1449 CK=CTS_12 Q=n1900 
Xclk_r_REG269_S1 DFFQX1TR $PINS D=n1447 CK=CTS_6 Q=n1898 
Xclk_r_REG267_S1 DFFQX1TR $PINS D=n1445 CK=CTS_4 Q=n1895 
Xclk_r_REG266_S1 DFFQX1TR $PINS D=n1444 CK=CTS_7 Q=n1894 
Xclk_r_REG264_S1 DFFQX1TR $PINS D=n1442 CK=CTS_7 Q=n1892 
Xclk_r_REG263_S1 DFFQX1TR $PINS D=n1441 CK=CTS_7 Q=n1891 
Xclk_r_REG262_S1 DFFQX1TR $PINS D=n1440 CK=CTS_7 Q=n1890 
Xclk_r_REG261_S1 DFFQX1TR $PINS D=n1439 CK=CTS_7 Q=n1889 
Xclk_r_REG260_S1 DFFQX1TR $PINS D=n1438 CK=CTS_7 Q=n1888 
Xclk_r_REG258_S1 DFFQX1TR $PINS D=n1436 CK=CTS_6 Q=n1886 
Xclk_r_REG256_S1 DFFQX1TR $PINS D=n1434 CK=CTS_12 Q=n1884 
Xclk_r_REG255_S1 DFFQX1TR $PINS D=n1433 CK=CTS_12 Q=n1883 
Xclk_r_REG254_S1 DFFQX1TR $PINS D=n1432 CK=CTS_12 Q=n1882 
Xclk_r_REG289_S2 DFFQX1TR $PINS D=n1881 CK=CTS_9 Q=n1880 
Xclk_r_REG287_S1 DFFQX1TR $PINS D=n1430 CK=CTS_3 Q=n1879 
Xclk_r_REG286_S1 DFFQX1TR $PINS D=n1429 CK=CTS_7 Q=n1877 
Xclk_r_REG285_S1 DFFQX1TR $PINS D=n1428 CK=CTS_7 Q=n1876 
Xclk_r_REG284_S1 DFFQX1TR $PINS D=n1427 CK=CTS_3 Q=n1875 
Xclk_r_REG283_S1 DFFQX1TR $PINS D=n1426 CK=CTS_3 Q=n1874 
Xclk_r_REG276_S1 DFFQX1TR $PINS D=n1419 CK=CTS_4 Q=n1867 
Xclk_r_REG274_S1 DFFQX1TR $PINS D=n1417 CK=CTS_4 Q=n1865 
Xclk_r_REG273_S1 DFFQX1TR $PINS D=n1416 CK=CTS_4 Q=n1864 
Xclk_r_REG207_S1 DFFQX1TR $PINS D=n1415 CK=CTS_12 Q=n1863 
Xclk_r_REG205_S1 DFFQX1TR $PINS D=n1413 CK=CTS_12 Q=n1860 
Xclk_r_REG204_S1 DFFQX1TR $PINS D=n1412 CK=CTS_2 Q=n1859 
Xclk_r_REG225_S1 DFFQX1TR $PINS D=n1411 CK=CTS_2 Q=n1858 
Xclk_r_REG224_S1 DFFQX1TR $PINS D=n1410 CK=CTS_4 Q=n1856 
Xclk_r_REG223_S1 DFFQX1TR $PINS D=n1409 CK=CTS_4 Q=n1855 
Xclk_r_REG222_S1 DFFQX1TR $PINS D=n1408 CK=CTS_6 Q=n1854 
Xclk_r_REG220_S1 DFFQX1TR $PINS D=n1406 CK=CTS_6 Q=n1852 
Xclk_r_REG219_S1 DFFQX1TR $PINS D=n1405 CK=CTS_6 Q=n1851 
Xclk_r_REG218_S1 DFFQX1TR $PINS D=n1404 CK=CTS_7 Q=n1850 
Xclk_r_REG217_S1 DFFQX1TR $PINS D=n1403 CK=CTS_6 Q=n1849 
Xclk_r_REG216_S1 DFFQX1TR $PINS D=n1402 CK=CTS_7 Q=n1848 
Xclk_r_REG215_S1 DFFQX1TR $PINS D=n1401 CK=CTS_7 Q=n1847 
Xclk_r_REG214_S1 DFFQX1TR $PINS D=n1400 CK=CTS_6 Q=n1846 
Xclk_r_REG212_S1 DFFQX1TR $PINS D=n1398 CK=CTS_12 Q=n1844 
Xclk_r_REG211_S1 DFFQX1TR $PINS D=n1397 CK=CTS_12 Q=n1843 
Xclk_r_REG210_S1 DFFQX1TR $PINS D=n1396 CK=CTS_8 Q=n1842 
Xclk_r_REG243_S1 DFFQX1TR $PINS D=n1394 CK=CTS_3 Q=n1839 
Xclk_r_REG242_S1 DFFQX1TR $PINS D=n1393 CK=CTS_8 Q=n1837 
Xclk_r_REG241_S1 DFFQX1TR $PINS D=n1392 CK=CTS_8 Q=n1836 
Xclk_r_REG240_S1 DFFQX1TR $PINS D=n1391 CK=CTS_3 Q=n1835 
Xclk_r_REG239_S1 DFFQX1TR $PINS D=n1390 CK=CTS_3 Q=n1834 
Xclk_r_REG234_S1 DFFQX1TR $PINS D=n1385 CK=CTS_8 Q=n1829 
Xclk_r_REG233_S1 DFFQX1TR $PINS D=n1384 CK=CTS_8 Q=n1828 
Xclk_r_REG232_S1 DFFQX1TR $PINS D=n1383 CK=CTS_4 Q=n1827 
Xclk_r_REG231_S1 DFFQX1TR $PINS D=n1382 CK=CTS_4 Q=n1826 
Xclk_r_REG230_S1 DFFQX1TR $PINS D=n1381 CK=CTS_4 Q=n1825 
Xclk_r_REG229_S1 DFFQX1TR $PINS D=n1380 CK=CTS_4 Q=n1824 
Xclk_r_REG164_S2 DFFQX1TR $PINS D=n1823 CK=CTS_12 Q=n1822 
Xclk_r_REG201_S2 DFFQX1TR $PINS D=n1801 CK=CTS_9 Q=n1800 
Xclk_r_REG188_S1 DFFQX1TR $PINS D=n1347 CK=CTS_4 Q=n1787 
Xclk_r_REG185_S1 DFFQX1TR $PINS D=n1344 CK=CTS_4 Q=n1784 
Xclk_r_REG11_S1 DFFQX1TR $PINS D=n1339 CK=CTS_9 Q=n1783 
Xclk_r_REG531_S1 DFFQX1TR $PINS D=FE_OFN144_reset CK=CTS_11 Q=n1778 
Xclk_r_REG82_S1 DFFQX1TR $PINS D=FE_OFN147_reset CK=CTS_11 Q=n1777 
Xclk_r_REG69_S3 DFFQX1TR $PINS 
+ D=PE_top0_buff_mult_arr0_genblk1_0__buffer_mult0_MULT_single0_out_int_4_ 
+ CK=CTS_11 Q=n1776 
Xclk_r_REG100_S2 DFFQX1TR $PINS 
+ D=PE_top0_buff_mult_arr0_genblk1_2__buffer_mult0_MULT_single0_out_int<4> 
+ CK=CTS_2 Q=n1773 
Xclk_r_REG87_S2 DFFQX1TR $PINS 
+ D=PE_top0_buff_mult_arr0_genblk1_1__buffer_mult0_MULT_single0_out_int<4> 
+ CK=CTS_11 Q=n1771 
Xclk_r_REG62_S3 DFFQX1TR $PINS D=PE_top0_ST_ADD<0> CK=CTS_11 Q=n1766 
Xclk_r_REG63_S4 DFFQX1TR $PINS D=pe_out_pk_PE_state__0_ CK=CTS_9 Q=n1763 
Xclk_r_REG57_S3 DFFQX1TR $PINS D=pe_out_pk_PE_state__1_ CK=CTS_9 Q=n1762 
Xclk_r_REG51_S3 DFFQX1TR $PINS D=pe_out_pk_PE_state__2_ CK=CTS_11 Q=n1761 
Xclk_r_REG61_S2 DFFQX1TR $PINS D=PE_top0_ST_MULT<0> CK=CTS_11 Q=n1760 
Xclk_r_REG55_S1 DFFQX1TR $PINS D=PE_top0_ST_MULT<1> CK=CTS_11 Q=n1759 
Xclk_r_REG49_S1 DFFQX1TR $PINS D=PE_top0_ST_MULT<2> CK=CTS_11 Q=n1758 
Xclk_r_REG60_S1 DFFQX1TR $PINS D=PE_top0_buff_mult_arr0_state_int2<0> CK=CTS_2 
+ Q=n1757 
Xclk_r_REG54_S1 DFFQX1TR $PINS D=PE_top0_buff_mult_arr0_state_int2<1> CK=CTS_2 
+ Q=n1756 
Xclk_r_REG48_S1 DFFQX1TR $PINS D=PE_top0_buff_mult_arr0_state_int2<2> CK=CTS_2 
+ Q=n1755 
Xclk_r_REG59_S1 DFFQX1TR $PINS D=PE_top0_buff_mult_arr0_state_int1<0> CK=CTS_3 
+ Q=n1754 
Xclk_r_REG53_S1 DFFQX1TR $PINS D=PE_top0_buff_mult_arr0_state_int1<1> CK=CTS_3 
+ Q=n1753 
Xclk_r_REG47_S1 DFFQX1TR $PINS D=PE_top0_buff_mult_arr0_state_int1<2> CK=CTS_3 
+ Q=n1752 
Xclk_r_REG21_S3 DFFQX1TR $PINS D=n1342 CK=CTS_9 Q=n1750 
Xclk_r_REG39_S3 DFFQX1TR $PINS D=n1341 CK=CTS_9 Q=n1749 
Xclk_r_REG3_S3 DFFQX1TR $PINS D=pe_out_pk_data__7_ CK=CTS_9 Q=n1747 
Xclk_r_REG8_S3 DFFQX1TR $PINS D=pe_out_pk_data__6_ CK=CTS_9 Q=n1746 
Xclk_r_REG14_S3 DFFQX1TR $PINS D=pe_out_pk_data__5_ CK=CTS_9 Q=n1744 
Xclk_r_REG20_S3 DFFQX1TR $PINS D=pe_out_pk_data__4_ CK=CTS_9 Q=n1742 
Xclk_r_REG26_S3 DFFQX1TR $PINS D=pe_out_pk_data__3_ CK=CTS_9 Q=n1740 
Xclk_r_REG32_S3 DFFQX1TR $PINS D=pe_out_pk_data__2_ CK=CTS_9 Q=n1738 
Xclk_r_REG38_S3 DFFQX1TR $PINS D=pe_out_pk_data__1_ CK=CTS_9 Q=n1736 
Xclk_r_REG44_S3 DFFQX1TR $PINS D=pe_out_pk_data__0_ CK=CTS_9 Q=n1734 
Xclk_r_REG2_S2 DFFQX1TR $PINS D=PE_top0_OUT_ADD<7> CK=CTS_9 Q=n1732 
Xclk_r_REG7_S2 DFFQX1TR $PINS D=PE_top0_OUT_ADD<6> CK=CTS_9 Q=n1731 
Xclk_r_REG25_S2 DFFQX1TR $PINS D=PE_top0_OUT_ADD<3> CK=CTS_9 Q=n1728 
Xclk_r_REG31_S2 DFFQX1TR $PINS D=PE_top0_OUT_ADD<2> CK=CTS_9 Q=n1727 
Xclk_r_REG37_S2 DFFQX1TR $PINS D=PE_top0_OUT_ADD<1> CK=CTS_9 Q=n1726 
Xclk_r_REG88_S2 DFFQX1TR $PINS 
+ D=PE_top0_buff_mult_arr0_genblk1_1__buffer_mult0_MULT_single0_out1_0_ CK=CTS_11 
+ Q=n1724 
Xclk_r_REG101_S2 DFFQX1TR $PINS 
+ D=PE_top0_buff_mult_arr0_genblk1_2__buffer_mult0_MULT_single0_out1_0_ CK=CTS_12 
+ Q=n1723 
Xclk_r_REG70_S3 DFFQX1TR $PINS 
+ D=PE_top0_buff_mult_arr0_genblk1_0__buffer_mult0_MULT_single0_out1_0_ CK=CTS_11 
+ Q=n1721 
Xclk_r_REG42_S1 DFFQX1TR $PINS D=PE_top0_adder0_out_int2<0> CK=CTS_9 Q=n1720 
Xclk_r_REG30_S1 DFFQX1TR $PINS D=PE_top0_DP_OP_17J1_122_4844_n35 CK=CTS_9 
+ Q=n1718 
Xclk_r_REG35_S1 DFFQX1TR $PINS D=PE_top0_DP_OP_17J1_122_4844_n34 CK=CTS_9 
+ Q=n1717 
Xclk_r_REG18_S1 DFFQX1TR $PINS D=PE_top0_DP_OP_17J1_122_4844_n28 CK=CTS_9 
+ Q=n1714 
Xclk_r_REG41_S1 DFFQX1TR $PINS D=PE_top0_DP_OP_17J1_122_4844_n37 CK=CTS_9 
+ Q=n1704 
Xclk_r_REG467_S2 DFFQX1TR $PINS D=n2185 CK=CTS_8 Q=n1702 
Xclk_r_REG379_S2 DFFQX1TR $PINS D=n2183 CK=CTS_8 Q=n1700 
Xclk_r_REG335_S2 DFFQX1TR $PINS D=n2182 CK=CTS_8 Q=n1699 
Xclk_r_REG291_S2 DFFQX1TR $PINS D=n2181 CK=CTS_8 Q=n1698 
Xclk_r_REG203_S2 DFFQX1TR $PINS D=n2178 CK=CTS_8 Q=n1696 
Xclk_r_REG404_S2 DFFQX1TR $PINS D=n2164 CK=CTS_6 Q=n1685 
Xclk_r_REG228_S2 DFFQX1TR $PINS D=n2160 CK=CTS_6 Q=n1681 
Xclk_r_REG429_S2 DFFQX1TR $PINS D=n2155 CK=CTS_12 Q=n1678 
Xclk_r_REG385_S2 DFFQX1TR $PINS D=n2154 CK=CTS_2 Q=n1677 
Xclk_r_REG253_S2 DFFQX1TR $PINS D=n2151 CK=CTS_12 Q=n1674 
Xclk_r_REG165_S2 DFFQX1TR $PINS D=n2148 CK=CTS_12 Q=n1672 
Xclk_r_REG83_S1 DFFHQX2TR $PINS D=n2147 CK=CTS_12 Q=n1708 
Xclk_r_REG526_S2 DFFHQX2TR $PINS D=n2149 CK=CTS_12 Q=n1782 
Xclk_r_REG525_S2 DFFHQX2TR $PINS D=n2159 CK=CTS_6 Q=n1781 
Xclk_r_REG530_S1 DFFHQX2TR $PINS D=n2179 CK=CTS_9 Q=n1779 
Xclk_r_REG97_S1 DFFHQX2TR $PINS D=n2157 CK=CTS_6 Q=n1707 
Xclk_r_REG65_S2 DFFHQX2TR $PINS D=n2177 CK=CTS_8 Q=n1705 
Xclk_r_REG529_S1 DFFHQX2TR $PINS D=n2169 CK=CTS_3 Q=n1780 
Xclk_r_REG112_S1 DFFQX4TR $PINS D=n2167 CK=CTS_3 Q=n1706 
Xclk_r_REG52_S4 DFFQX1TR $PINS D=n2188 CK=CTS_11 Q=pk_out_PE_state__2_ 
Xclk_r_REG58_S4 DFFQX1TR $PINS D=n2189 CK=CTS_11 Q=pk_out_PE_state__1_ 
Xclk_r_REG64_S5 DFFQX1TR $PINS D=n2190 CK=CTS_11 Q=pk_out_PE_state__0_ 
Xclk_r_REG5_S4 DFFQX1TR $PINS D=n2187 CK=CTS_9 Q=n1767 
Xclk_r_REG10_S4 DFFQX1TR $PINS D=n1746 CK=CTS_9 Q=n1745 
Xclk_r_REG16_S4 DFFQX1TR $PINS D=n1744 CK=CTS_9 Q=n1743 
Xclk_r_REG22_S4 DFFQX1TR $PINS D=n1742 CK=CTS_9 Q=n1741 
Xclk_r_REG28_S4 DFFQX1TR $PINS D=n1740 CK=CTS_9 Q=n1739 
Xclk_r_REG34_S4 DFFQX1TR $PINS D=n1738 CK=CTS_9 Q=n1737 
Xclk_r_REG40_S4 DFFQX1TR $PINS D=n1736 CK=CTS_9 Q=n1735 
Xclk_r_REG46_S4 DFFQX1TR $PINS D=n1734 CK=CTS_9 Q=n1733 
Xclk_r_REG247_S2 DFFQX1TR $PINS D=n2180 CK=CTS_8 Q=n1697 
Xclk_r_REG315_S2 DFFQX1TR $PINS D=n2172 CK=CTS_3 Q=n1691 
Xclk_r_REG245_S2 DFFQX1TR $PINS D=n1841 CK=CTS_9 Q=n1840 
XPE_top0_buff_mult_arr0_mult_x_24_clk_r_REG68_S3 DFFQX1TR $PINS 
+ D=PE_top0_buff_mult_arr0_mult_x_24_n39 CK=CTS_11 Q=n1338 
XPE_top0_buff_mult_arr0_mult_x_24_clk_r_REG76_S3 DFFQX1TR $PINS 
+ D=PE_top0_buff_mult_arr0_mult_x_24_n22 CK=CTS_11 Q=n1330 
XPE_top0_buff_mult_arr0_mult_x_24_clk_r_REG134_S1 DFFQX1TR $PINS 
+ D=PE_top0_buff_mult_arr0_genblk1_0__buffer_mult0_mult_A<0> CK=CTS_11 Q=n1326 
XPE_top0_buff_mult_arr0_mult_x_24_clk_r_REG139_S1 DFFHQX2TR $PINS 
+ D=PE_top0_buff_mult_arr0_genblk1_0__buffer_mult0_mult_A<1> CK=CTS_11 Q=n1325 
XPE_top0_buff_mult_arr0_mult_x_24_clk_r_REG132_S1 DFFQX1TR $PINS 
+ D=PE_top0_buff_mult_arr0_genblk1_0__buffer_mult0_mult_A<2> CK=CTS_11 Q=n1324 
XPE_top0_buff_mult_arr0_mult_x_24_clk_r_REG131_S1 DFFQX4TR $PINS 
+ D=PE_top0_buff_mult_arr0_genblk1_0__buffer_mult0_mult_A<3> CK=CTS_11 Q=n1323 
XPE_top0_buff_mult_arr0_mult_x_24_clk_r_REG133_S1 DFFQX1TR $PINS 
+ D=PE_top0_buff_mult_arr0_genblk1_0__buffer_mult0_mult_A<6> CK=CTS_11 Q=n1320 
XPE_top0_buff_mult_arr0_mult_x_24_clk_r_REG512_S1 DFFQX2TR $PINS 
+ D=PE_top0_buff_mult_arr0_genblk1_0__buffer_mult0_mult_A<7> CK=CTS_11 Q=n1319 
XPE_top0_buff_mult_arr0_mult_x_27_clk_r_REG126_S2 DFFQX1TR $PINS 
+ D=PE_top0_buff_mult_arr0_mult_x_27_n19 CK=CTS_2 Q=n1307 
XPE_top0_buff_mult_arr0_mult_x_27_clk_r_REG123_S2 DFFHQX1TR $PINS 
+ D=PE_top0_buff_mult_arr0_mult_x_27_n22 CK=CTS_2 Q=n1313 
XPE_top0_buff_mult_arr0_mult_x_27_clk_r_REG119_S2 DFFHQX1TR $PINS 
+ D=PE_top0_buff_mult_arr0_mult_x_27_n24 CK=CTS_2 Q=n1312 
XPE_top0_buff_mult_arr0_mult_x_27_clk_r_REG122_S2 DFFQX1TR $PINS 