* SPICE NETLIST
***************************************

.SUBCKT esdscr A K PD SX
.ENDS
***************************************
.SUBCKT subc SUBCON SUB
.ENDS
***************************************
.SUBCKT nfettw G S D B PI sx
.ENDS
***************************************
.SUBCKT dgnfettw G S D B PI sx
.ENDS
***************************************
.SUBCKT nfet33tw G S D B PI sx
.ENDS
***************************************
.SUBCKT hvtnfet33tw G S D B PI sx
.ENDS
***************************************
.SUBCKT lvtnfettw G S D B PI sx
.ENDS
***************************************
.SUBCKT lpnfettw G S D B PI sx
.ENDS
***************************************
.SUBCKT nfettw_rf G S D B PI sx
.ENDS
***************************************
.SUBCKT dgnfettw_rf G S D B PI sx
.ENDS
***************************************
.SUBCKT hvtnfet33tw_rf G S D B PI sx
.ENDS
***************************************
.SUBCKT lvtnfettw_rf G S D B PI sx
.ENDS
***************************************
.SUBCKT nfet33tw_rf G S D B PI sx
.ENDS
***************************************
.SUBCKT lpnfettw_rf G S D B PI sx
.ENDS
***************************************
.SUBCKT sblkndres D S G
.ENDS
***************************************
.SUBCKT ncap G S B D
.ENDS
***************************************
.SUBCKT dgncap G S B D
.ENDS
***************************************
.SUBCKT diffhavar ANODE1 ANODE2 CATHODE BULK
.ENDS
***************************************
.SUBCKT diffncap GA GB NW SX
.ENDS
***************************************
.SUBCKT esdnsh_base d g s b
.ENDS
***************************************
.SUBCKT esdpsh_base d g s b
.ENDS
***************************************
.SUBCKT bondpad in gp sub
.ENDS
***************************************
.SUBCKT devicepad pad
.ENDS
***************************************
.SUBCKT efuse IN OUT
.ENDS
***************************************
.SUBCKT indp out in bulk
.ENDS
***************************************
.SUBCKT ind out in bulk
.ENDS
***************************************
.SUBCKT inds out in bulk
.ENDS
***************************************
.SUBCKT symindp outpr outse ct BULK
.ENDS
***************************************
.SUBCKT symind outpr outse ct BULK
.ENDS
***************************************
.SUBCKT rfline in out bulk
.ENDS
***************************************
.SUBCKT singlewire VA VB VSHIELD
.ENDS
***************************************
.SUBCKT coupledwires VA1 VA2 VB1 VB2 VSHIELD
.ENDS
***************************************
.SUBCKT singlecpw va vb vshield
.ENDS
***************************************
.SUBCKT coupledcpw va1 va2 vb1 vb2 vshield
.ENDS
***************************************
.SUBCKT corrPoint cp
.ENDS
***************************************
.SUBCKT ICV_12
** N=2 EP=0 IP=0 FDC=0
.ENDS
***************************************
.SUBCKT ICV_11
** N=2 EP=0 IP=0 FDC=0
.ENDS
***************************************
.SUBCKT ICV_10
** N=308 EP=0 IP=0 FDC=0
.ENDS
***************************************
.SUBCKT ICV_9
** N=976 EP=0 IP=0 FDC=0
.ENDS
***************************************
.SUBCKT ICV_8
** N=4088 EP=0 IP=0 FDC=0
.ENDS
***************************************
.SUBCKT ICV_7
** N=4014 EP=0 IP=0 FDC=0
.ENDS
***************************************
.SUBCKT ICV_6
** N=4887 EP=0 IP=0 FDC=0
.ENDS
***************************************
.SUBCKT ICV_5
** N=4914 EP=0 IP=0 FDC=0
.ENDS
***************************************
.SUBCKT PCORNER
** N=17 EP=0 IP=47 FDC=0
*.CALIBRE ISOLATED NETS: VSS DVDD DVSS VDD
.ENDS
***************************************
.SUBCKT ICV_148
** N=4 EP=0 IP=4 FDC=0
.ENDS
***************************************
.SUBCKT fillqbp_i
** N=102 EP=0 IP=0 FDC=0
*.CALIBRE ISOLATED NETS: DVDD VSS
.ENDS
***************************************
.SUBCKT PFILLH
** N=5124 EP=0 IP=4 FDC=0
*.CALIBRE ISOLATED NETS: VSS DVSS DVDD VDD
.ENDS
***************************************
.SUBCKT ICV_262
** N=4 EP=0 IP=16 FDC=0
.ENDS
***************************************
.SUBCKT ICV_145
** N=4 EP=0 IP=4 FDC=0
.ENDS
***************************************
.SUBCKT ICV_261
** N=4 EP=0 IP=32 FDC=0
.ENDS
***************************************
.SUBCKT PFILLQ
** N=2664 EP=0 IP=0 FDC=0
*.CALIBRE ISOLATED NETS: VSS DVSS DVDD VDD
.ENDS
***************************************
.SUBCKT PFILL1
** N=4 EP=0 IP=0 FDC=0
*.CALIBRE ISOLATED NETS: VSS DVSS DVDD VDD
.ENDS
***************************************
.SUBCKT ppoly_res_w2_l25 1 2 3
** N=13 EP=3 IP=0 FDC=1
R0 1 2 4371.76 L=2.5e-05 W=2e-06 sbar=1 m=1 par=1 bp=3 $SUB=3 $[opppcres] $X=0 $Y=590 $D=355
.ENDS
***************************************
.SUBCKT ICV_151 1 2 3 4
** N=4 EP=4 IP=6 FDC=2
X0 1 2 4 ppoly_res_w2_l25 $T=0 0 0 0 $X=-320 $Y=-300
X1 1 3 4 ppoly_res_w2_l25 $T=2800 0 0 0 $X=2480 $Y=-300
.ENDS
***************************************
.SUBCKT ICV_152 1 2 3 4 5 6
** N=6 EP=6 IP=8 FDC=4
X0 1 2 3 6 ICV_151 $T=0 0 0 0 $X=-320 $Y=-300
X1 4 3 5 6 ICV_151 $T=5600 0 0 0 $X=5280 $Y=-300
.ENDS
***************************************
.SUBCKT ICV_153 1 2 3 4 5 6 7 8 9 10
** N=10 EP=10 IP=12 FDC=8
X0 1 2 3 4 5 10 ICV_152 $T=0 0 0 0 $X=-320 $Y=-300
X1 6 5 7 8 9 10 ICV_152 $T=11200 0 0 0 $X=10880 $Y=-300
.ENDS
***************************************
.SUBCKT ICV_2 1 VSS 3
** N=2176 EP=3 IP=32 FDC=24
X0 14 8 9 15 3 VSS ICV_152 $T=33550 79300 0 90 $X=7070 $Y=78980
X1 20 25 26 21 1 VSS ICV_152 $T=36450 79300 1 90 $X=36150 $Y=78980
X2 10 4 5 11 6 12 7 13 8 VSS ICV_153 $T=33550 56900 0 90 $X=7070 $Y=56580
X3 16 4 22 17 23 18 24 19 25 VSS ICV_153 $T=36450 56900 1 90 $X=36150 $Y=56580
.ENDS
***************************************
.SUBCKT ICV_3 VSS DVDD 5
** N=27458 EP=3 IP=0 FDC=196
*.CALIBRE ISOLATED NETS: DVSS VDD
M0 DVDD 6 VSS VSS dgnfet L=2.4e-07 W=2.9e-05 m=1 par=1 nf=1 ngcon=1 psp=0 $X=4810 $Y=5370 $D=106
M1 VSS 6 DVDD VSS dgnfet L=2.4e-07 W=2.9e-05 m=1 par=1 nf=1 ngcon=1 psp=0 $X=4810 $Y=6050 $D=106
M2 DVDD 6 VSS VSS dgnfet L=2.4e-07 W=2.9e-05 m=1 par=1 nf=1 ngcon=1 psp=0 $X=4810 $Y=6730 $D=106
M3 VSS 6 DVDD VSS dgnfet L=2.4e-07 W=2.9e-05 m=1 par=1 nf=1 ngcon=1 psp=0 $X=4810 $Y=7410 $D=106
M4 DVDD 6 VSS VSS dgnfet L=2.4e-07 W=2.9e-05 m=1 par=1 nf=1 ngcon=1 psp=0 $X=4810 $Y=8090 $D=106
M5 VSS 6 DVDD VSS dgnfet L=2.4e-07 W=2.9e-05 m=1 par=1 nf=1 ngcon=1 psp=0 $X=4810 $Y=8770 $D=106
M6 DVDD 6 VSS VSS dgnfet L=2.4e-07 W=2.9e-05 m=1 par=1 nf=1 ngcon=1 psp=0 $X=4810 $Y=9450 $D=106
M7 VSS 6 DVDD VSS dgnfet L=2.4e-07 W=2.9e-05 m=1 par=1 nf=1 ngcon=1 psp=0 $X=4810 $Y=10130 $D=106
M8 DVDD 6 VSS VSS dgnfet L=2.4e-07 W=2.9e-05 m=1 par=1 nf=1 ngcon=1 psp=0 $X=4810 $Y=10810 $D=106
M9 VSS 6 DVDD VSS dgnfet L=2.4e-07 W=2.9e-05 m=1 par=1 nf=1 ngcon=1 psp=0 $X=4810 $Y=11490 $D=106
M10 DVDD 6 VSS VSS dgnfet L=2.4e-07 W=2.9e-05 m=1 par=1 nf=1 ngcon=1 psp=0 $X=4810 $Y=12170 $D=106
M11 VSS 6 DVDD VSS dgnfet L=2.4e-07 W=2.9e-05 m=1 par=1 nf=1 ngcon=1 psp=0 $X=4810 $Y=12850 $D=106
M12 DVDD 6 VSS VSS dgnfet L=2.4e-07 W=2.9e-05 m=1 par=1 nf=1 ngcon=1 psp=0 $X=4810 $Y=13530 $D=106
M13 VSS 6 DVDD VSS dgnfet L=2.4e-07 W=2.9e-05 m=1 par=1 nf=1 ngcon=1 psp=0 $X=4810 $Y=14210 $D=106
M14 DVDD 6 VSS VSS dgnfet L=2.4e-07 W=2.9e-05 m=1 par=1 nf=1 ngcon=1 psp=0 $X=4810 $Y=14890 $D=106
M15 DVDD 6 VSS VSS dgnfet L=2.4e-07 W=2.9e-05 m=1 par=1 nf=1 ngcon=1 psp=0 $X=4810 $Y=17910 $D=106
M16 VSS 6 DVDD VSS dgnfet L=2.4e-07 W=2.9e-05 m=1 par=1 nf=1 ngcon=1 psp=0 $X=4810 $Y=18590 $D=106
M17 DVDD 6 VSS VSS dgnfet L=2.4e-07 W=2.9e-05 m=1 par=1 nf=1 ngcon=1 psp=0 $X=4810 $Y=19270 $D=106
M18 VSS 6 DVDD VSS dgnfet L=2.4e-07 W=2.9e-05 m=1 par=1 nf=1 ngcon=1 psp=0 $X=4810 $Y=19950 $D=106
M19 DVDD 6 VSS VSS dgnfet L=2.4e-07 W=2.9e-05 m=1 par=1 nf=1 ngcon=1 psp=0 $X=4810 $Y=20630 $D=106
M20 VSS 6 DVDD VSS dgnfet L=2.4e-07 W=2.9e-05 m=1 par=1 nf=1 ngcon=1 psp=0 $X=4810 $Y=21310 $D=106
M21 DVDD 6 VSS VSS dgnfet L=2.4e-07 W=2.9e-05 m=1 par=1 nf=1 ngcon=1 psp=0 $X=4810 $Y=21990 $D=106
M22 VSS 6 DVDD VSS dgnfet L=2.4e-07 W=2.9e-05 m=1 par=1 nf=1 ngcon=1 psp=0 $X=4810 $Y=22670 $D=106
M23 DVDD 6 VSS VSS dgnfet L=2.4e-07 W=2.9e-05 m=1 par=1 nf=1 ngcon=1 psp=0 $X=4810 $Y=23350 $D=106
M24 VSS 6 DVDD VSS dgnfet L=2.4e-07 W=2.9e-05 m=1 par=1 nf=1 ngcon=1 psp=0 $X=4810 $Y=24030 $D=106
M25 DVDD 6 VSS VSS dgnfet L=2.4e-07 W=2.9e-05 m=1 par=1 nf=1 ngcon=1 psp=0 $X=4810 $Y=24710 $D=106
M26 VSS 6 DVDD VSS dgnfet L=2.4e-07 W=2.9e-05 m=1 par=1 nf=1 ngcon=1 psp=0 $X=4810 $Y=25390 $D=106
M27 DVDD 6 VSS VSS dgnfet L=2.4e-07 W=2.9e-05 m=1 par=1 nf=1 ngcon=1 psp=0 $X=4810 $Y=26070 $D=106
M28 VSS 6 DVDD VSS dgnfet L=2.4e-07 W=2.9e-05 m=1 par=1 nf=1 ngcon=1 psp=0 $X=4810 $Y=26750 $D=106
M29 DVDD 6 VSS VSS dgnfet L=2.4e-07 W=2.9e-05 m=1 par=1 nf=1 ngcon=1 psp=0 $X=4810 $Y=27430 $D=106
M30 DVDD 6 VSS VSS dgnfet L=2.4e-07 W=2.9e-05 m=1 par=1 nf=1 ngcon=1 psp=0 $X=4810 $Y=30450 $D=106
M31 VSS 6 DVDD VSS dgnfet L=2.4e-07 W=2.9e-05 m=1 par=1 nf=1 ngcon=1 psp=0 $X=4810 $Y=31130 $D=106
M32 DVDD 6 VSS VSS dgnfet L=2.4e-07 W=2.9e-05 m=1 par=1 nf=1 ngcon=1 psp=0 $X=4810 $Y=31810 $D=106
M33 VSS 6 DVDD VSS dgnfet L=2.4e-07 W=2.9e-05 m=1 par=1 nf=1 ngcon=1 psp=0 $X=4810 $Y=32490 $D=106
M34 DVDD 6 VSS VSS dgnfet L=2.4e-07 W=2.9e-05 m=1 par=1 nf=1 ngcon=1 psp=0 $X=4810 $Y=33170 $D=106
M35 VSS 6 DVDD VSS dgnfet L=2.4e-07 W=2.9e-05 m=1 par=1 nf=1 ngcon=1 psp=0 $X=4810 $Y=33850 $D=106
M36 DVDD 6 VSS VSS dgnfet L=2.4e-07 W=2.9e-05 m=1 par=1 nf=1 ngcon=1 psp=0 $X=4810 $Y=34530 $D=106
M37 VSS 6 DVDD VSS dgnfet L=2.4e-07 W=2.9e-05 m=1 par=1 nf=1 ngcon=1 psp=0 $X=4810 $Y=35210 $D=106
M38 DVDD 6 VSS VSS dgnfet L=2.4e-07 W=2.9e-05 m=1 par=1 nf=1 ngcon=1 psp=0 $X=4810 $Y=35890 $D=106
M39 VSS 6 DVDD VSS dgnfet L=2.4e-07 W=2.9e-05 m=1 par=1 nf=1 ngcon=1 psp=0 $X=4810 $Y=36570 $D=106
M40 DVDD 6 VSS VSS dgnfet L=2.4e-07 W=2.9e-05 m=1 par=1 nf=1 ngcon=1 psp=0 $X=4810 $Y=37250 $D=106
M41 VSS 6 DVDD VSS dgnfet L=2.4e-07 W=2.9e-05 m=1 par=1 nf=1 ngcon=1 psp=0 $X=4810 $Y=37930 $D=106
M42 DVDD 6 VSS VSS dgnfet L=2.4e-07 W=2.9e-05 m=1 par=1 nf=1 ngcon=1 psp=0 $X=4810 $Y=38610 $D=106
M43 VSS 6 DVDD VSS dgnfet L=2.4e-07 W=2.9e-05 m=1 par=1 nf=1 ngcon=1 psp=0 $X=4810 $Y=39290 $D=106
M44 DVDD 6 VSS VSS dgnfet L=2.4e-07 W=2.9e-05 m=1 par=1 nf=1 ngcon=1 psp=0 $X=4810 $Y=39970 $D=106
M45 DVDD 6 VSS VSS dgnfet L=2.4e-07 W=2.9e-05 m=1 par=1 nf=1 ngcon=1 psp=0 $X=4810 $Y=42990 $D=106
M46 VSS 6 DVDD VSS dgnfet L=2.4e-07 W=2.9e-05 m=1 par=1 nf=1 ngcon=1 psp=0 $X=4810 $Y=43670 $D=106
M47 DVDD 6 VSS VSS dgnfet L=2.4e-07 W=2.9e-05 m=1 par=1 nf=1 ngcon=1 psp=0 $X=4810 $Y=44350 $D=106
M48 VSS 6 DVDD VSS dgnfet L=2.4e-07 W=2.9e-05 m=1 par=1 nf=1 ngcon=1 psp=0 $X=4810 $Y=45030 $D=106
M49 DVDD 6 VSS VSS dgnfet L=2.4e-07 W=2.9e-05 m=1 par=1 nf=1 ngcon=1 psp=0 $X=4810 $Y=45710 $D=106
M50 VSS 6 DVDD VSS dgnfet L=2.4e-07 W=2.9e-05 m=1 par=1 nf=1 ngcon=1 psp=0 $X=4810 $Y=46390 $D=106
M51 DVDD 6 VSS VSS dgnfet L=2.4e-07 W=2.9e-05 m=1 par=1 nf=1 ngcon=1 psp=0 $X=4810 $Y=47070 $D=106
M52 VSS 6 DVDD VSS dgnfet L=2.4e-07 W=2.9e-05 m=1 par=1 nf=1 ngcon=1 psp=0 $X=4810 $Y=47750 $D=106
M53 DVDD 6 VSS VSS dgnfet L=2.4e-07 W=2.9e-05 m=1 par=1 nf=1 ngcon=1 psp=0 $X=4810 $Y=48430 $D=106
M54 VSS 6 DVDD VSS dgnfet L=2.4e-07 W=2.9e-05 m=1 par=1 nf=1 ngcon=1 psp=0 $X=4810 $Y=49110 $D=106
M55 DVDD 6 VSS VSS dgnfet L=2.4e-07 W=2.9e-05 m=1 par=1 nf=1 ngcon=1 psp=0 $X=4810 $Y=49790 $D=106
M56 VSS 6 DVDD VSS dgnfet L=2.4e-07 W=2.9e-05 m=1 par=1 nf=1 ngcon=1 psp=0 $X=4810 $Y=50470 $D=106
M57 DVDD 6 VSS VSS dgnfet L=2.4e-07 W=2.9e-05 m=1 par=1 nf=1 ngcon=1 psp=0 $X=4810 $Y=51150 $D=106
M58 VSS 6 DVDD VSS dgnfet L=2.4e-07 W=2.9e-05 m=1 par=1 nf=1 ngcon=1 psp=0 $X=4810 $Y=51830 $D=106
M59 DVDD 6 VSS VSS dgnfet L=2.4e-07 W=2.9e-05 m=1 par=1 nf=1 ngcon=1 psp=0 $X=4810 $Y=52510 $D=106
M60 DVDD 6 VSS VSS dgnfet L=2.4e-07 W=2.9e-05 m=1 par=1 nf=1 ngcon=1 psp=0 $X=4810 $Y=55530 $D=106
M61 VSS 6 DVDD VSS dgnfet L=2.4e-07 W=2.9e-05 m=1 par=1 nf=1 ngcon=1 psp=0 $X=4810 $Y=56210 $D=106
M62 DVDD 6 VSS VSS dgnfet L=2.4e-07 W=2.9e-05 m=1 par=1 nf=1 ngcon=1 psp=0 $X=4810 $Y=56890 $D=106
M63 VSS 6 DVDD VSS dgnfet L=2.4e-07 W=2.9e-05 m=1 par=1 nf=1 ngcon=1 psp=0 $X=4810 $Y=57570 $D=106
M64 DVDD 6 VSS VSS dgnfet L=2.4e-07 W=2.9e-05 m=1 par=1 nf=1 ngcon=1 psp=0 $X=4810 $Y=58250 $D=106
M65 VSS 6 DVDD VSS dgnfet L=2.4e-07 W=2.9e-05 m=1 par=1 nf=1 ngcon=1 psp=0 $X=4810 $Y=58930 $D=106
M66 DVDD 6 VSS VSS dgnfet L=2.4e-07 W=2.9e-05 m=1 par=1 nf=1 ngcon=1 psp=0 $X=4810 $Y=59610 $D=106
M67 VSS 6 DVDD VSS dgnfet L=2.4e-07 W=2.9e-05 m=1 par=1 nf=1 ngcon=1 psp=0 $X=4810 $Y=60290 $D=106
M68 DVDD 6 VSS VSS dgnfet L=2.4e-07 W=2.9e-05 m=1 par=1 nf=1 ngcon=1 psp=0 $X=4810 $Y=60970 $D=106
M69 VSS 6 DVDD VSS dgnfet L=2.4e-07 W=2.9e-05 m=1 par=1 nf=1 ngcon=1 psp=0 $X=4810 $Y=61650 $D=106
M70 DVDD 6 VSS VSS dgnfet L=2.4e-07 W=2.9e-05 m=1 par=1 nf=1 ngcon=1 psp=0 $X=4810 $Y=62330 $D=106
M71 VSS 6 DVDD VSS dgnfet L=2.4e-07 W=2.9e-05 m=1 par=1 nf=1 ngcon=1 psp=0 $X=4810 $Y=63010 $D=106
M72 DVDD 6 VSS VSS dgnfet L=2.4e-07 W=2.9e-05 m=1 par=1 nf=1 ngcon=1 psp=0 $X=4810 $Y=63690 $D=106
M73 VSS 6 DVDD VSS dgnfet L=2.4e-07 W=2.9e-05 m=1 par=1 nf=1 ngcon=1 psp=0 $X=4810 $Y=64370 $D=106
M74 DVDD 6 VSS VSS dgnfet L=2.4e-07 W=2.9e-05 m=1 par=1 nf=1 ngcon=1 psp=0 $X=4810 $Y=65050 $D=106
M75 6 5 VSS VSS dgnfet L=2.4e-07 W=2e-06 m=1 par=1 nf=1 ngcon=1 psp=0 $X=30220 $Y=68810 $D=106
M76 VSS 5 6 VSS dgnfet L=2.4e-07 W=2e-06 m=1 par=1 nf=1 ngcon=1 psp=0 $X=30220 $Y=69490 $D=106
M77 6 5 VSS VSS dgnfet L=2.4e-07 W=2e-06 m=1 par=1 nf=1 ngcon=1 psp=0 $X=30220 $Y=70170 $D=106
M78 VSS 5 6 VSS dgnfet L=2.4e-07 W=2e-06 m=1 par=1 nf=1 ngcon=1 psp=0 $X=30220 $Y=70850 $D=106
M79 DVDD 6 VSS VSS dgnfet L=2.4e-07 W=2.9e-05 m=1 par=1 nf=1 ngcon=1 psp=0 $X=36190 $Y=5370 $D=106
M80 VSS 6 DVDD VSS dgnfet L=2.4e-07 W=2.9e-05 m=1 par=1 nf=1 ngcon=1 psp=0 $X=36190 $Y=6050 $D=106
M81 DVDD 6 VSS VSS dgnfet L=2.4e-07 W=2.9e-05 m=1 par=1 nf=1 ngcon=1 psp=0 $X=36190 $Y=6730 $D=106
M82 VSS 6 DVDD VSS dgnfet L=2.4e-07 W=2.9e-05 m=1 par=1 nf=1 ngcon=1 psp=0 $X=36190 $Y=7410 $D=106
M83 DVDD 6 VSS VSS dgnfet L=2.4e-07 W=2.9e-05 m=1 par=1 nf=1 ngcon=1 psp=0 $X=36190 $Y=8090 $D=106
M84 VSS 6 DVDD VSS dgnfet L=2.4e-07 W=2.9e-05 m=1 par=1 nf=1 ngcon=1 psp=0 $X=36190 $Y=8770 $D=106
M85 DVDD 6 VSS VSS dgnfet L=2.4e-07 W=2.9e-05 m=1 par=1 nf=1 ngcon=1 psp=0 $X=36190 $Y=9450 $D=106
M86 VSS 6 DVDD VSS dgnfet L=2.4e-07 W=2.9e-05 m=1 par=1 nf=1 ngcon=1 psp=0 $X=36190 $Y=10130 $D=106
M87 DVDD 6 VSS VSS dgnfet L=2.4e-07 W=2.9e-05 m=1 par=1 nf=1 ngcon=1 psp=0 $X=36190 $Y=10810 $D=106
M88 VSS 6 DVDD VSS dgnfet L=2.4e-07 W=2.9e-05 m=1 par=1 nf=1 ngcon=1 psp=0 $X=36190 $Y=11490 $D=106
M89 DVDD 6 VSS VSS dgnfet L=2.4e-07 W=2.9e-05 m=1 par=1 nf=1 ngcon=1 psp=0 $X=36190 $Y=12170 $D=106
M90 VSS 6 DVDD VSS dgnfet L=2.4e-07 W=2.9e-05 m=1 par=1 nf=1 ngcon=1 psp=0 $X=36190 $Y=12850 $D=106
M91 DVDD 6 VSS VSS dgnfet L=2.4e-07 W=2.9e-05 m=1 par=1 nf=1 ngcon=1 psp=0 $X=36190 $Y=13530 $D=106
M92 VSS 6 DVDD VSS dgnfet L=2.4e-07 W=2.9e-05 m=1 par=1 nf=1 ngcon=1 psp=0 $X=36190 $Y=14210 $D=106
M93 DVDD 6 VSS VSS dgnfet L=2.4e-07 W=2.9e-05 m=1 par=1 nf=1 ngcon=1 psp=0 $X=36190 $Y=14890 $D=106
M94 DVDD 6 VSS VSS dgnfet L=2.4e-07 W=2.9e-05 m=1 par=1 nf=1 ngcon=1 psp=0 $X=36190 $Y=17910 $D=106
M95 VSS 6 DVDD VSS dgnfet L=2.4e-07 W=2.9e-05 m=1 par=1 nf=1 ngcon=1 psp=0 $X=36190 $Y=18590 $D=106
M96 DVDD 6 VSS VSS dgnfet L=2.4e-07 W=2.9e-05 m=1 par=1 nf=1 ngcon=1 psp=0 $X=36190 $Y=19270 $D=106
M97 VSS 6 DVDD VSS dgnfet L=2.4e-07 W=2.9e-05 m=1 par=1 nf=1 ngcon=1 psp=0 $X=36190 $Y=19950 $D=106
M98 DVDD 6 VSS VSS dgnfet L=2.4e-07 W=2.9e-05 m=1 par=1 nf=1 ngcon=1 psp=0 $X=36190 $Y=20630 $D=106
M99 VSS 6 DVDD VSS dgnfet L=2.4e-07 W=2.9e-05 m=1 par=1 nf=1 ngcon=1 psp=0 $X=36190 $Y=21310 $D=106
M100 DVDD 6 VSS VSS dgnfet L=2.4e-07 W=2.9e-05 m=1 par=1 nf=1 ngcon=1 psp=0 $X=36190 $Y=21990 $D=106
M101 VSS 6 DVDD VSS dgnfet L=2.4e-07 W=2.9e-05 m=1 par=1 nf=1 ngcon=1 psp=0 $X=36190 $Y=22670 $D=106
M102 DVDD 6 VSS VSS dgnfet L=2.4e-07 W=2.9e-05 m=1 par=1 nf=1 ngcon=1 psp=0 $X=36190 $Y=23350 $D=106
M103 VSS 6 DVDD VSS dgnfet L=2.4e-07 W=2.9e-05 m=1 par=1 nf=1 ngcon=1 psp=0 $X=36190 $Y=24030 $D=106
M104 DVDD 6 VSS VSS dgnfet L=2.4e-07 W=2.9e-05 m=1 par=1 nf=1 ngcon=1 psp=0 $X=36190 $Y=24710 $D=106
M105 VSS 6 DVDD VSS dgnfet L=2.4e-07 W=2.9e-05 m=1 par=1 nf=1 ngcon=1 psp=0 $X=36190 $Y=25390 $D=106
M106 DVDD 6 VSS VSS dgnfet L=2.4e-07 W=2.9e-05 m=1 par=1 nf=1 ngcon=1 psp=0 $X=36190 $Y=26070 $D=106
M107 VSS 6 DVDD VSS dgnfet L=2.4e-07 W=2.9e-05 m=1 par=1 nf=1 ngcon=1 psp=0 $X=36190 $Y=26750 $D=106
M108 DVDD 6 VSS VSS dgnfet L=2.4e-07 W=2.9e-05 m=1 par=1 nf=1 ngcon=1 psp=0 $X=36190 $Y=27430 $D=106
M109 DVDD 6 VSS VSS dgnfet L=2.4e-07 W=2.9e-05 m=1 par=1 nf=1 ngcon=1 psp=0 $X=36190 $Y=30450 $D=106
M110 VSS 6 DVDD VSS dgnfet L=2.4e-07 W=2.9e-05 m=1 par=1 nf=1 ngcon=1 psp=0 $X=36190 $Y=31130 $D=106
M111 DVDD 6 VSS VSS dgnfet L=2.4e-07 W=2.9e-05 m=1 par=1 nf=1 ngcon=1 psp=0 $X=36190 $Y=31810 $D=106
M112 VSS 6 DVDD VSS dgnfet L=2.4e-07 W=2.9e-05 m=1 par=1 nf=1 ngcon=1 psp=0 $X=36190 $Y=32490 $D=106
M113 DVDD 6 VSS VSS dgnfet L=2.4e-07 W=2.9e-05 m=1 par=1 nf=1 ngcon=1 psp=0 $X=36190 $Y=33170 $D=106
M114 VSS 6 DVDD VSS dgnfet L=2.4e-07 W=2.9e-05 m=1 par=1 nf=1 ngcon=1 psp=0 $X=36190 $Y=33850 $D=106
M115 DVDD 6 VSS VSS dgnfet L=2.4e-07 W=2.9e-05 m=1 par=1 nf=1 ngcon=1 psp=0 $X=36190 $Y=34530 $D=106
M116 VSS 6 DVDD VSS dgnfet L=2.4e-07 W=2.9e-05 m=1 par=1 nf=1 ngcon=1 psp=0 $X=36190 $Y=35210 $D=106
M117 DVDD 6 VSS VSS dgnfet L=2.4e-07 W=2.9e-05 m=1 par=1 nf=1 ngcon=1 psp=0 $X=36190 $Y=35890 $D=106
M118 VSS 6 DVDD VSS dgnfet L=2.4e-07 W=2.9e-05 m=1 par=1 nf=1 ngcon=1 psp=0 $X=36190 $Y=36570 $D=106
M119 DVDD 6 VSS VSS dgnfet L=2.4e-07 W=2.9e-05 m=1 par=1 nf=1 ngcon=1 psp=0 $X=36190 $Y=37250 $D=106
M120 VSS 6 DVDD VSS dgnfet L=2.4e-07 W=2.9e-05 m=1 par=1 nf=1 ngcon=1 psp=0 $X=36190 $Y=37930 $D=106
M121 DVDD 6 VSS VSS dgnfet L=2.4e-07 W=2.9e-05 m=1 par=1 nf=1 ngcon=1 psp=0 $X=36190 $Y=38610 $D=106
M122 VSS 6 DVDD VSS dgnfet L=2.4e-07 W=2.9e-05 m=1 par=1 nf=1 ngcon=1 psp=0 $X=36190 $Y=39290 $D=106
M123 DVDD 6 VSS VSS dgnfet L=2.4e-07 W=2.9e-05 m=1 par=1 nf=1 ngcon=1 psp=0 $X=36190 $Y=39970 $D=106
M124 DVDD 6 VSS VSS dgnfet L=2.4e-07 W=2.9e-05 m=1 par=1 nf=1 ngcon=1 psp=0 $X=36190 $Y=42990 $D=106
M125 VSS 6 DVDD VSS dgnfet L=2.4e-07 W=2.9e-05 m=1 par=1 nf=1 ngcon=1 psp=0 $X=36190 $Y=43670 $D=106
M126 DVDD 6 VSS VSS dgnfet L=2.4e-07 W=2.9e-05 m=1 par=1 nf=1 ngcon=1 psp=0 $X=36190 $Y=44350 $D=106
M127 VSS 6 DVDD VSS dgnfet L=2.4e-07 W=2.9e-05 m=1 par=1 nf=1 ngcon=1 psp=0 $X=36190 $Y=45030 $D=106
M128 DVDD 6 VSS VSS dgnfet L=2.4e-07 W=2.9e-05 m=1 par=1 nf=1 ngcon=1 psp=0 $X=36190 $Y=45710 $D=106
M129 VSS 6 DVDD VSS dgnfet L=2.4e-07 W=2.9e-05 m=1 par=1 nf=1 ngcon=1 psp=0 $X=36190 $Y=46390 $D=106
M130 DVDD 6 VSS VSS dgnfet L=2.4e-07 W=2.9e-05 m=1 par=1 nf=1 ngcon=1 psp=0 $X=36190 $Y=47070 $D=106
M131 VSS 6 DVDD VSS dgnfet L=2.4e-07 W=2.9e-05 m=1 par=1 nf=1 ngcon=1 psp=0 $X=36190 $Y=47750 $D=106
M132 DVDD 6 VSS VSS dgnfet L=2.4e-07 W=2.9e-05 m=1 par=1 nf=1 ngcon=1 psp=0 $X=36190 $Y=48430 $D=106
M133 VSS 6 DVDD VSS dgnfet L=2.4e-07 W=2.9e-05 m=1 par=1 nf=1 ngcon=1 psp=0 $X=36190 $Y=49110 $D=106
M134 DVDD 6 VSS VSS dgnfet L=2.4e-07 W=2.9e-05 m=1 par=1 nf=1 ngcon=1 psp=0 $X=36190 $Y=49790 $D=106
M135 VSS 6 DVDD VSS dgnfet L=2.4e-07 W=2.9e-05 m=1 par=1 nf=1 ngcon=1 psp=0 $X=36190 $Y=50470 $D=106
M136 DVDD 6 VSS VSS dgnfet L=2.4e-07 W=2.9e-05 m=1 par=1 nf=1 ngcon=1 psp=0 $X=36190 $Y=51150 $D=106
M137 VSS 6 DVDD VSS dgnfet L=2.4e-07 W=2.9e-05 m=1 par=1 nf=1 ngcon=1 psp=0 $X=36190 $Y=51830 $D=106
M138 DVDD 6 VSS VSS dgnfet L=2.4e-07 W=2.9e-05 m=1 par=1 nf=1 ngcon=1 psp=0 $X=36190 $Y=52510 $D=106
M139 DVDD 6 VSS VSS dgnfet L=2.4e-07 W=2.9e-05 m=1 par=1 nf=1 ngcon=1 psp=0 $X=36190 $Y=55530 $D=106
M140 VSS 6 DVDD VSS dgnfet L=2.4e-07 W=2.9e-05 m=1 par=1 nf=1 ngcon=1 psp=0 $X=36190 $Y=56210 $D=106
M141 DVDD 6 VSS VSS dgnfet L=2.4e-07 W=2.9e-05 m=1 par=1 nf=1 ngcon=1 psp=0 $X=36190 $Y=56890 $D=106
M142 VSS 6 DVDD VSS dgnfet L=2.4e-07 W=2.9e-05 m=1 par=1 nf=1 ngcon=1 psp=0 $X=36190 $Y=57570 $D=106
M143 DVDD 6 VSS VSS dgnfet L=2.4e-07 W=2.9e-05 m=1 par=1 nf=1 ngcon=1 psp=0 $X=36190 $Y=58250 $D=106
M144 VSS 6 DVDD VSS dgnfet L=2.4e-07 W=2.9e-05 m=1 par=1 nf=1 ngcon=1 psp=0 $X=36190 $Y=58930 $D=106
M145 DVDD 6 VSS VSS dgnfet L=2.4e-07 W=2.9e-05 m=1 par=1 nf=1 ngcon=1 psp=0 $X=36190 $Y=59610 $D=106
M146 VSS 6 DVDD VSS dgnfet L=2.4e-07 W=2.9e-05 m=1 par=1 nf=1 ngcon=1 psp=0 $X=36190 $Y=60290 $D=106
M147 DVDD 6 VSS VSS dgnfet L=2.4e-07 W=2.9e-05 m=1 par=1 nf=1 ngcon=1 psp=0 $X=36190 $Y=60970 $D=106
M148 VSS 6 DVDD VSS dgnfet L=2.4e-07 W=2.9e-05 m=1 par=1 nf=1 ngcon=1 psp=0 $X=36190 $Y=61650 $D=106
M149 DVDD 6 VSS VSS dgnfet L=2.4e-07 W=2.9e-05 m=1 par=1 nf=1 ngcon=1 psp=0 $X=36190 $Y=62330 $D=106
M150 VSS 6 DVDD VSS dgnfet L=2.4e-07 W=2.9e-05 m=1 par=1 nf=1 ngcon=1 psp=0 $X=36190 $Y=63010 $D=106
M151 DVDD 6 VSS VSS dgnfet L=2.4e-07 W=2.9e-05 m=1 par=1 nf=1 ngcon=1 psp=0 $X=36190 $Y=63690 $D=106
M152 VSS 6 DVDD VSS dgnfet L=2.4e-07 W=2.9e-05 m=1 par=1 nf=1 ngcon=1 psp=0 $X=36190 $Y=64370 $D=106
M153 DVDD 6 VSS VSS dgnfet L=2.4e-07 W=2.9e-05 m=1 par=1 nf=1 ngcon=1 psp=0 $X=36190 $Y=65050 $D=106
M154 6 5 VSS VSS dgnfet L=2.4e-07 W=2e-06 m=1 par=1 nf=1 ngcon=1 psp=0 $X=37780 $Y=68810 $D=106
M155 VSS 5 6 VSS dgnfet L=2.4e-07 W=2e-06 m=1 par=1 nf=1 ngcon=1 psp=0 $X=37780 $Y=69490 $D=106
M156 6 5 VSS VSS dgnfet L=2.4e-07 W=2e-06 m=1 par=1 nf=1 ngcon=1 psp=0 $X=37780 $Y=70170 $D=106
M157 VSS 5 6 VSS dgnfet L=2.4e-07 W=2e-06 m=1 par=1 nf=1 ngcon=1 psp=0 $X=37780 $Y=70850 $D=106
M158 6 5 DVDD DVDD dgpfet L=2.4e-07 W=1e-05 m=1 par=1 nf=1 ngcon=1 psp=0 $X=16940 $Y=68810 $D=193
M159 DVDD 5 6 DVDD dgpfet L=2.4e-07 W=1e-05 m=1 par=1 nf=1 ngcon=1 psp=0 $X=16940 $Y=69490 $D=193
M160 6 5 DVDD DVDD dgpfet L=2.4e-07 W=1e-05 m=1 par=1 nf=1 ngcon=1 psp=0 $X=16940 $Y=70170 $D=193
M161 DVDD 5 6 DVDD dgpfet L=2.4e-07 W=1e-05 m=1 par=1 nf=1 ngcon=1 psp=0 $X=16940 $Y=70850 $D=193
M162 6 5 DVDD DVDD dgpfet L=2.4e-07 W=1e-05 m=1 par=1 nf=1 ngcon=1 psp=0 $X=43060 $Y=68810 $D=193
M163 DVDD 5 6 DVDD dgpfet L=2.4e-07 W=1e-05 m=1 par=1 nf=1 ngcon=1 psp=0 $X=43060 $Y=69490 $D=193
M164 6 5 DVDD DVDD dgpfet L=2.4e-07 W=1e-05 m=1 par=1 nf=1 ngcon=1 psp=0 $X=43060 $Y=70170 $D=193
M165 DVDD 5 6 DVDD dgpfet L=2.4e-07 W=1e-05 m=1 par=1 nf=1 ngcon=1 psp=0 $X=43060 $Y=70850 $D=193
X166 5 VSS VSS VSS dgncap w=1e-05 l=7.5e-06 m=1 pcrep=1 prxrep=1 $X=8560 $Y=76490 $D=397
X167 5 VSS VSS VSS dgncap w=1e-05 l=7.5e-06 m=1 pcrep=1 prxrep=1 $X=8560 $Y=84470 $D=397
X168 5 VSS VSS VSS dgncap w=1e-05 l=7.5e-06 m=1 pcrep=1 prxrep=1 $X=8560 $Y=92450 $D=397
X169 5 VSS VSS VSS dgncap w=1e-05 l=7.5e-06 m=1 pcrep=1 prxrep=1 $X=8560 $Y=100430 $D=397
X170 5 VSS VSS VSS dgncap w=1e-05 l=7.5e-06 m=1 pcrep=1 prxrep=1 $X=8560 $Y=108410 $D=397
X171 5 VSS VSS VSS dgncap w=1e-05 l=7.5e-06 m=1 pcrep=1 prxrep=1 $X=8560 $Y=116390 $D=397
X172 5 VSS VSS VSS dgncap w=1e-05 l=7.5e-06 m=1 pcrep=1 prxrep=1 $X=19280 $Y=76490 $D=397
X173 5 VSS VSS VSS dgncap w=1e-05 l=7.5e-06 m=1 pcrep=1 prxrep=1 $X=19280 $Y=84470 $D=397
X174 5 VSS VSS VSS dgncap w=1e-05 l=7.5e-06 m=1 pcrep=1 prxrep=1 $X=19280 $Y=92450 $D=397
X175 5 VSS VSS VSS dgncap w=1e-05 l=7.5e-06 m=1 pcrep=1 prxrep=1 $X=19280 $Y=100430 $D=397
X176 5 VSS VSS VSS dgncap w=1e-05 l=7.5e-06 m=1 pcrep=1 prxrep=1 $X=19280 $Y=108410 $D=397
X177 5 VSS VSS VSS dgncap w=1e-05 l=7.5e-06 m=1 pcrep=1 prxrep=1 $X=19280 $Y=116390 $D=397
X178 5 VSS VSS VSS dgncap w=1e-05 l=7.5e-06 m=1 pcrep=1 prxrep=1 $X=30000 $Y=76490 $D=397
X179 5 VSS VSS VSS dgncap w=1e-05 l=7.5e-06 m=1 pcrep=1 prxrep=1 $X=30000 $Y=84470 $D=397
X180 5 VSS VSS VSS dgncap w=1e-05 l=7.5e-06 m=1 pcrep=1 prxrep=1 $X=30000 $Y=92450 $D=397
X181 5 VSS VSS VSS dgncap w=1e-05 l=7.5e-06 m=1 pcrep=1 prxrep=1 $X=30000 $Y=100430 $D=397
X182 5 VSS VSS VSS dgncap w=1e-05 l=7.5e-06 m=1 pcrep=1 prxrep=1 $X=30000 $Y=108410 $D=397
X183 5 VSS VSS VSS dgncap w=1e-05 l=7.5e-06 m=1 pcrep=1 prxrep=1 $X=30000 $Y=116390 $D=397
X184 5 VSS VSS VSS dgncap w=1e-05 l=7.5e-06 m=1 pcrep=1 prxrep=1 $X=40720 $Y=76490 $D=397
X185 5 VSS VSS VSS dgncap w=1e-05 l=7.5e-06 m=1 pcrep=1 prxrep=1 $X=40720 $Y=84470 $D=397
X186 5 VSS VSS VSS dgncap w=1e-05 l=7.5e-06 m=1 pcrep=1 prxrep=1 $X=40720 $Y=92450 $D=397
X187 5 VSS VSS VSS dgncap w=1e-05 l=7.5e-06 m=1 pcrep=1 prxrep=1 $X=40720 $Y=100430 $D=397
X188 5 VSS VSS VSS dgncap w=1e-05 l=7.5e-06 m=1 pcrep=1 prxrep=1 $X=40720 $Y=108410 $D=397
X189 5 VSS VSS VSS dgncap w=1e-05 l=7.5e-06 m=1 pcrep=1 prxrep=1 $X=40720 $Y=116390 $D=397
X190 5 VSS VSS VSS dgncap w=1e-05 l=7.5e-06 m=1 pcrep=1 prxrep=1 $X=51440 $Y=76490 $D=397
X191 5 VSS VSS VSS dgncap w=1e-05 l=7.5e-06 m=1 pcrep=1 prxrep=1 $X=51440 $Y=84470 $D=397
X192 5 VSS VSS VSS dgncap w=1e-05 l=7.5e-06 m=1 pcrep=1 prxrep=1 $X=51440 $Y=92450 $D=397
X193 5 VSS VSS VSS dgncap w=1e-05 l=7.5e-06 m=1 pcrep=1 prxrep=1 $X=51440 $Y=100430 $D=397
X194 5 VSS VSS VSS dgncap w=1e-05 l=7.5e-06 m=1 pcrep=1 prxrep=1 $X=51440 $Y=108410 $D=397
X195 5 VSS VSS VSS dgncap w=1e-05 l=7.5e-06 m=1 pcrep=1 prxrep=1 $X=51440 $Y=116390 $D=397
.ENDS
***************************************
.SUBCKT PDVDD VSS DVSS DVDD VDD
** N=5 EP=4 IP=8 FDC=220
X0 DVDD VSS 5 ICV_2 $T=0 0 0 0 $X=-140 $Y=0
X1 VSS DVDD 5 ICV_3 $T=0 117000 0 0 $X=-140 $Y=117000
.ENDS
***************************************
.SUBCKT ICV_176
** N=4 EP=0 IP=8 FDC=0
.ENDS
***************************************
.SUBCKT dvssbp_i
** N=1785 EP=0 IP=0 FDC=0
*.CALIBRE ISOLATED NETS: DVDD VSS
.ENDS
***************************************
.SUBCKT ICV_26
** N=1812 EP=0 IP=0 FDC=0
.ENDS
***************************************
.SUBCKT ICV_25
** N=2067 EP=0 IP=0 FDC=0
.ENDS
***************************************
.SUBCKT ICV_24
** N=1952 EP=0 IP=0 FDC=0
.ENDS
***************************************
.SUBCKT ICV_23
** N=1394 EP=0 IP=0 FDC=0
.ENDS
***************************************
.SUBCKT ICV_22
** N=786 EP=0 IP=0 FDC=0
.ENDS
***************************************
.SUBCKT ICV_21
** N=2112 EP=0 IP=0 FDC=0
.ENDS
***************************************
.SUBCKT ICV_20
** N=1309 EP=0 IP=0 FDC=0
.ENDS
***************************************
.SUBCKT ICV_19
** N=1590 EP=0 IP=0 FDC=0
.ENDS
***************************************
.SUBCKT nc_grounds_l
** N=2 EP=0 IP=0 FDC=0
*.CALIBRE ISOLATED NETS: pad vss_dvss_l1
.ENDS
***************************************
.SUBCKT nc_grounds_r
** N=2 EP=0 IP=0 FDC=0
*.CALIBRE ISOLATED NETS: vss_dvss_l1 pad
.ENDS
***************************************
.SUBCKT dvss_oly
** N=20 EP=0 IP=57 FDC=0
*.CALIBRE ISOLATED NETS: DVDD VSS VDD DVSS
.ENDS
***************************************
.SUBCKT mc2_grounds_capl
** N=60 EP=0 IP=0 FDC=0
*.CALIBRE ISOLATED NETS: DVDD VSS
.ENDS
***************************************
.SUBCKT ipplscp_dvss_sub
** N=1639 EP=0 IP=0 FDC=0
.ENDS
***************************************
.SUBCKT ipplscp_dvss
** N=4628 EP=0 IP=2628 FDC=0
*.CALIBRE ISOLATED NETS: VSS DVDD DVSS
.ENDS
***************************************
.SUBCKT bc_grounds_cnrl
** N=2 EP=0 IP=0 FDC=0
*.CALIBRE ISOLATED NETS: VSS pad
.ENDS
***************************************
.SUBCKT nc_grounds_capl
** N=1 EP=0 IP=0 FDC=0
*.CALIBRE ISOLATED NETS: VSS
.ENDS
***************************************
.SUBCKT bc_grounds_l
** N=3 EP=0 IP=0 FDC=0
*.CALIBRE ISOLATED NETS: pad vss_dvss_l1
.ENDS
***************************************
.SUBCKT mc2_grounds_l
** N=4 EP=0 IP=0 FDC=0
*.CALIBRE ISOLATED NETS: pad vss_dvss_l1 DVDD
.ENDS
***************************************
.SUBCKT bc_grounds
** N=4 EP=0 IP=0 FDC=0
*.CALIBRE ISOLATED NETS: vss_dvss_l1 pad vss_dvss_r1
.ENDS
***************************************
.SUBCKT ICV_18
** N=3 EP=0 IP=8 FDC=0
.ENDS
***************************************
.SUBCKT nc_grounds
** N=4 EP=0 IP=0 FDC=0
*.CALIBRE ISOLATED NETS: vss_dvss_l1 pad vss_dvss_r1
.ENDS
***************************************
.SUBCKT ICV_17
** N=3 EP=0 IP=8 FDC=0
.ENDS
***************************************
.SUBCKT mc2_grounds
** N=5 EP=0 IP=0 FDC=0
*.CALIBRE ISOLATED NETS: vss_dvss_l1 pad vss_dvss_r1
.ENDS
***************************************
.SUBCKT ICV_16
** N=4 EP=0 IP=10 FDC=0
.ENDS
***************************************
.SUBCKT bc_grounds_r
** N=3 EP=0 IP=0 FDC=0
*.CALIBRE ISOLATED NETS: vss_dvss_r1 pad
.ENDS
***************************************
.SUBCKT mc2_grounds_r
** N=4 EP=0 IP=0 FDC=0
*.CALIBRE ISOLATED NETS: vss_dvss_r1 pad
.ENDS
***************************************
.SUBCKT PDVSS VSS DVSS DVDD VDD
** N=4 EP=4 IP=67 FDC=0
.ENDS
***************************************
.SUBCKT mc2_capl
** N=127 EP=0 IP=0 FDC=0
*.CALIBRE ISOLATED NETS: VSS DVDD well_cntrl_res DVSS ng1 ng0 sdlow poff pg1 pg0
.ENDS
***************************************
.SUBCKT bc_cnrl
** N=21 EP=0 IP=0 FDC=0
*.CALIBRE ISOLATED NETS: VSS ng1 ng0 pad sdlow
.ENDS
***************************************
.SUBCKT nct_capl
** N=240 EP=0 IP=0 FDC=0
*.CALIBRE ISOLATED NETS: DVSS VSS ng1 ng0 sdlow sdhigh
.ENDS
***************************************
.SUBCKT nct DVSS pad ntr0m2 ntr1m2 sdhigh 10 11
** N=144 EP=7 IP=0 FDC=6
*.CALIBRE ISOLATED NETS: sdlow ng1 ng0
M0 10 ntr0m2 DVSS DVSS dgnfet L=2.4e-07 W=1.642e-05 m=1 par=1 nf=1 ngcon=1 psp=0 $X=380 $Y=370 $D=106
M1 13 sdhigh 10 DVSS dgnfet L=2.4e-07 W=1.642e-05 m=1 par=1 nf=1 ngcon=1 psp=0 $X=1220 $Y=370 $D=106
M2 11 sdhigh 14 DVSS dgnfet L=2.4e-07 W=1.642e-05 m=1 par=1 nf=1 ngcon=1 psp=0 $X=8540 $Y=370 $D=106
M3 DVSS ntr1m2 11 DVSS dgnfet L=2.4e-07 W=1.642e-05 m=1 par=1 nf=1 ngcon=1 psp=0 $X=9380 $Y=370 $D=106
X4 13 pad DVSS sblkndres w=1.642e-05 l=2e-06 r=9.64238 sbar=1 m=1 par=1 $X=2100 $Y=370 $D=350
X5 pad 14 DVSS sblkndres w=1.642e-05 l=2e-06 r=9.64238 sbar=1 m=1 par=1 $X=5900 $Y=370 $D=350
.ENDS
***************************************
.SUBCKT mc2l
** N=49 EP=0 IP=0 FDC=0
*.CALIBRE ISOLATED NETS: VSS DVDD well_cntrl_res pad
.ENDS
***************************************
.SUBCKT bc
** N=10 EP=0 IP=0 FDC=0
*.CALIBRE ISOLATED NETS: VSS pad
.ENDS
***************************************
.SUBCKT mc2
** N=53 EP=0 IP=0 FDC=0
*.CALIBRE ISOLATED NETS: VSS DVDD well_cntrl_res pad
.ENDS
***************************************
.SUBCKT mc2r
** N=49 EP=0 IP=0 FDC=0