* 
* Copyright 2022 by Artisan Components, Inc.
* This file has been provided pursuant to a License Agreement
* containing restrictions on its use.  This file contains valuable
* trade secrets and proprietary information of Artisan Components,
* Inc. and is protected by law.
* 
* Generated by bif2cdl v3.3e
* Version: 2008Q3V1
* Name: High Speed/Density Single Port SRAM Generator|IBM CMRF8SF-LPVT Process
* Comment: 
* Configuration:  -instname "SIGN_MEM" -words 4096 -bits 16 -freque\
* Configuration: ncy 100 -ring_width 4.0 -mux 16 -write_mask off -w\
* Configuration: p_size 8 -top_layer met4 -power_type rings -horiz \
* Configuration: met4 -vert met3 -cust_comment "" -bus_notation on \
* Configuration: -left_bus_delim "[" -right_bus_delim "]" -pwr_gnd_\
* Configuration: rename "VDD:VDD,GND:VSS" -prefix "" -pin_space 0.0\
* Configuration:  -name_case upper -check_instname on -diodes on -i\
* Configuration: nside_ring_type GND -drive 6 -asvm on -corners ff_\
* Configuration: 1p32v_m40c,ff_1p65v_125c,tt_1p2v_25c,ss_1p08v_125c
* Codefile: 
* 
*
** begin lvs.header
** end lvs.header
*.BIPOLAR
*.DIOAREA
*.DIOPERI
*
****
.SUBCKT SIGN_MEMFLCCSTRAPR NDL WL VDD VSS
** SIGN_MEMFLCCSTRAPR: 1 flat devices **
m1 VSS WL NDL VSS LPNFET L=0.13U W=0.16U
.ENDS SIGN_MEMFLCCSTRAPR
****
.SUBCKT SIGN_MEMFCIO8 GTP OE_ WE VDD VSS
** SIGN_MEMFCIO8: 3 flat devices **
d1 VSS OE_ tdndsx AREA=0.1024P PERIM=1.28U
d2 VSS GTP tdndsx AREA=0.1024P PERIM=1.28U
d3 VSS WE tdndsx AREA=0.1024P PERIM=1.28U
.ENDS SIGN_MEMFCIO8
****
.SUBCKT SIGN_MEMFCSA8 GTP VDD VSS
** SIGN_MEMFCSA8: 1 flat devices **
d1 VSS GTP tdndsx AREA=0.1024P PERIM=1.28U
.ENDS SIGN_MEMFCSA8
****
.SUBCKT SIGN_MEMLEFT_CAP A0 A0_ DR DR_ DW DW_ GTP_0 GTP_1 GTP_2 OE_ WE WL_0
+  WL_1 WL_2 WL_3 WL_4 WL_5 WL_6 WL_7 WL_8 WL_9 WL_10 WL_11 WL_12 WL_13 WL_14
+  WL_15 WL_16 WL_17 WL_18 WL_19 WL_20 WL_21 WL_22 WL_23 WL_24 WL_25 WL_26
+  WL_27 WL_28 WL_29 WL_30 WL_31 WL_32 WL_33 WL_34 WL_35 WL_36 WL_37 WL_38
+  WL_39 WL_40 WL_41 WL_42 WL_43 WL_44 WL_45 WL_46 WL_47 WL_48 WL_49 WL_50
+  WL_51 WL_52 WL_53 WL_54 WL_55 WL_56 WL_57 WL_58 WL_59 WL_60 WL_61 WL_62
+  WL_63 WL_64 WL_65 WL_66 WL_67 WL_68 WL_69 WL_70 WL_71 WL_72 WL_73 WL_74
+  WL_75 WL_76 WL_77 WL_78 WL_79 WL_80 WL_81 WL_82 WL_83 WL_84 WL_85 WL_86
+  WL_87 WL_88 WL_89 WL_90 WL_91 WL_92 WL_93 WL_94 WL_95 WL_96 WL_97 WL_98
+  WL_99 WL_100 WL_101 WL_102 WL_103 WL_104 WL_105 WL_106 WL_107 WL_108 WL_109
+  WL_110 WL_111 WL_112 WL_113 WL_114 WL_115 WL_116 WL_117 WL_118 WL_119
+  WL_120 WL_121 WL_122 WL_123 WL_124 WL_125 WL_126 WL_127 WL_128 WL_129
+  WL_130 WL_131 WL_132 WL_133 WL_134 WL_135 WL_136 WL_137 WL_138 WL_139
+  WL_140 WL_141 WL_142 WL_143 WL_144 WL_145 WL_146 WL_147 WL_148 WL_149
+  WL_150 WL_151 WL_152 WL_153 WL_154 WL_155 WL_156 WL_157 WL_158 WL_159
+  WL_160 WL_161 WL_162 WL_163 WL_164 WL_165 WL_166 WL_167 WL_168 WL_169
+  WL_170 WL_171 WL_172 WL_173 WL_174 WL_175 WL_176 WL_177 WL_178 WL_179
+  WL_180 WL_181 WL_182 WL_183 WL_184 WL_185 WL_186 WL_187 WL_188 WL_189
+  WL_190 WL_191 WL_192 WL_193 WL_194 WL_195 WL_196 WL_197 WL_198 WL_199
+  WL_200 WL_201 WL_202 WL_203 WL_204 WL_205 WL_206 WL_207 WL_208 WL_209
+  WL_210 WL_211 WL_212 WL_213 WL_214 WL_215 WL_216 WL_217 WL_218 WL_219
+  WL_220 WL_221 WL_222 WL_223 WL_224 WL_225 WL_226 WL_227 WL_228 WL_229
+  WL_230 WL_231 WL_232 WL_233 WL_234 WL_235 WL_236 WL_237 WL_238 WL_239
+  WL_240 WL_241 WL_242 WL_243 WL_244 WL_245 WL_246 WL_247 WL_248 WL_249
+  WL_250 WL_251 WL_252 WL_253 WL_254 WL_255 YP0_0 YP0_1 YP0_2 YP0_3 YP1_0
+  YP1_1 YP1_2 YP1_3 VDD VSS
** SIGN_MEMLEFT_CAP: 262 flat devices **
XI0_0 GTP_0 OE_ WE VDD VSS SIGN_MEMFCIO8
XI0_1 GTP_1 VDD VSS SIGN_MEMFCSA8
XI0_10 NDL_183 WL_6 VDD VSS SIGN_MEMFLCCSTRAPR
XI0_100 NDL_5 WL_96 VDD VSS SIGN_MEMFLCCSTRAPR
XI0_101 NDL_5 WL_97 VDD VSS SIGN_MEMFLCCSTRAPR
XI0_102 NDL_7 WL_98 VDD VSS SIGN_MEMFLCCSTRAPR
XI0_103 NDL_7 WL_99 VDD VSS SIGN_MEMFLCCSTRAPR
XI0_104 NDL_9 WL_100 VDD VSS SIGN_MEMFLCCSTRAPR
XI0_105 NDL_9 WL_101 VDD VSS SIGN_MEMFLCCSTRAPR
XI0_106 NDL_11 WL_102 VDD VSS SIGN_MEMFLCCSTRAPR
XI0_107 NDL_11 WL_103 VDD VSS SIGN_MEMFLCCSTRAPR
XI0_108 NDL_15 WL_104 VDD VSS SIGN_MEMFLCCSTRAPR
XI0_109 NDL_15 WL_105 VDD VSS SIGN_MEMFLCCSTRAPR
XI0_11 NDL_183 WL_7 VDD VSS SIGN_MEMFLCCSTRAPR
XI0_110 NDL_37 WL_106 VDD VSS SIGN_MEMFLCCSTRAPR
XI0_111 NDL_37 WL_107 VDD VSS SIGN_MEMFLCCSTRAPR
XI0_112 NDL_39 WL_108 VDD VSS SIGN_MEMFLCCSTRAPR
XI0_113 NDL_39 WL_109 VDD VSS SIGN_MEMFLCCSTRAPR
XI0_114 NDL_41 WL_110 VDD VSS SIGN_MEMFLCCSTRAPR
XI0_115 NDL_41 WL_111 VDD VSS SIGN_MEMFLCCSTRAPR
XI0_116 NDL_43 WL_112 VDD VSS SIGN_MEMFLCCSTRAPR
XI0_117 NDL_43 WL_113 VDD VSS SIGN_MEMFLCCSTRAPR
XI0_118 NDL_45 WL_114 VDD VSS SIGN_MEMFLCCSTRAPR
XI0_119 NDL_45 WL_115 VDD VSS SIGN_MEMFLCCSTRAPR
XI0_12 NDL_185 WL_8 VDD VSS SIGN_MEMFLCCSTRAPR
XI0_120 NDL_69 WL_116 VDD VSS SIGN_MEMFLCCSTRAPR
XI0_121 NDL_69 WL_117 VDD VSS SIGN_MEMFLCCSTRAPR
XI0_122 NDL_73 WL_118 VDD VSS SIGN_MEMFLCCSTRAPR
XI0_123 NDL_73 WL_119 VDD VSS SIGN_MEMFLCCSTRAPR
XI0_124 NDL_77 WL_120 VDD VSS SIGN_MEMFLCCSTRAPR
XI0_125 NDL_77 WL_121 VDD VSS SIGN_MEMFLCCSTRAPR
XI0_126 NDL_81 WL_122 VDD VSS SIGN_MEMFLCCSTRAPR
XI0_127 NDL_81 WL_123 VDD VSS SIGN_MEMFLCCSTRAPR
XI0_128 NDL_85 WL_124 VDD VSS SIGN_MEMFLCCSTRAPR
XI0_129 NDL_85 WL_125 VDD VSS SIGN_MEMFLCCSTRAPR
XI0_13 NDL_185 WL_9 VDD VSS SIGN_MEMFLCCSTRAPR
XI0_130 NDL_101 WL_126 VDD VSS SIGN_MEMFLCCSTRAPR
XI0_131 NDL_101 WL_127 VDD VSS SIGN_MEMFLCCSTRAPR
XI0_132 NDL_107 WL_128 VDD VSS SIGN_MEMFLCCSTRAPR
XI0_133 NDL_107 WL_129 VDD VSS SIGN_MEMFLCCSTRAPR
XI0_134 NDL_113 WL_130 VDD VSS SIGN_MEMFLCCSTRAPR
XI0_135 NDL_113 WL_131 VDD VSS SIGN_MEMFLCCSTRAPR
XI0_136 NDL_117 WL_132 VDD VSS SIGN_MEMFLCCSTRAPR
XI0_137 NDL_117 WL_133 VDD VSS SIGN_MEMFLCCSTRAPR
XI0_138 NDL_121 WL_134 VDD VSS SIGN_MEMFLCCSTRAPR
XI0_139 NDL_121 WL_135 VDD VSS SIGN_MEMFLCCSTRAPR
XI0_14 NDL_187 WL_10 VDD VSS SIGN_MEMFLCCSTRAPR
XI0_140 NDL_135 WL_136 VDD VSS SIGN_MEMFLCCSTRAPR
XI0_141 NDL_135 WL_137 VDD VSS SIGN_MEMFLCCSTRAPR
XI0_142 NDL_139 WL_138 VDD VSS SIGN_MEMFLCCSTRAPR
XI0_143 NDL_139 WL_139 VDD VSS SIGN_MEMFLCCSTRAPR
XI0_144 NDL_143 WL_140 VDD VSS SIGN_MEMFLCCSTRAPR
XI0_145 NDL_143 WL_141 VDD VSS SIGN_MEMFLCCSTRAPR
XI0_146 NDL_147 WL_142 VDD VSS SIGN_MEMFLCCSTRAPR
XI0_147 NDL_147 WL_143 VDD VSS SIGN_MEMFLCCSTRAPR
XI0_148 NDL_151 WL_144 VDD VSS SIGN_MEMFLCCSTRAPR
XI0_149 NDL_151 WL_145 VDD VSS SIGN_MEMFLCCSTRAPR
XI0_15 NDL_187 WL_11 VDD VSS SIGN_MEMFLCCSTRAPR
XI0_150 NDL_165 WL_146 VDD VSS SIGN_MEMFLCCSTRAPR
XI0_151 NDL_165 WL_147 VDD VSS SIGN_MEMFLCCSTRAPR
XI0_152 NDL_169 WL_148 VDD VSS SIGN_MEMFLCCSTRAPR
XI0_153 NDL_169 WL_149 VDD VSS SIGN_MEMFLCCSTRAPR
XI0_154 NDL_173 WL_150 VDD VSS SIGN_MEMFLCCSTRAPR
XI0_155 NDL_173 WL_151 VDD VSS SIGN_MEMFLCCSTRAPR
XI0_156 NDL_177 WL_152 VDD VSS SIGN_MEMFLCCSTRAPR
XI0_157 NDL_177 WL_153 VDD VSS SIGN_MEMFLCCSTRAPR
XI0_158 NDL_181 WL_154 VDD VSS SIGN_MEMFLCCSTRAPR
XI0_159 NDL_181 WL_155 VDD VSS SIGN_MEMFLCCSTRAPR
XI0_16 NDL_189 WL_12 VDD VSS SIGN_MEMFLCCSTRAPR
XI0_160 NDL_205 WL_156 VDD VSS SIGN_MEMFLCCSTRAPR
XI0_161 NDL_205 WL_157 VDD VSS SIGN_MEMFLCCSTRAPR
XI0_162 NDL_209 WL_158 VDD VSS SIGN_MEMFLCCSTRAPR
XI0_163 NDL_209 WL_159 VDD VSS SIGN_MEMFLCCSTRAPR
XI0_164 NDL_213 WL_160 VDD VSS SIGN_MEMFLCCSTRAPR
XI0_165 NDL_213 WL_161 VDD VSS SIGN_MEMFLCCSTRAPR
XI0_166 NDL_217 WL_162 VDD VSS SIGN_MEMFLCCSTRAPR
XI0_167 NDL_217 WL_163 VDD VSS SIGN_MEMFLCCSTRAPR
XI0_168 NDL_221 WL_164 VDD VSS SIGN_MEMFLCCSTRAPR
XI0_169 NDL_221 WL_165 VDD VSS SIGN_MEMFLCCSTRAPR
XI0_17 NDL_189 WL_13 VDD VSS SIGN_MEMFLCCSTRAPR
XI0_170 NDL_235 WL_166 VDD VSS SIGN_MEMFLCCSTRAPR
XI0_171 NDL_235 WL_167 VDD VSS SIGN_MEMFLCCSTRAPR
XI0_172 NDL_239 WL_168 VDD VSS SIGN_MEMFLCCSTRAPR
XI0_173 NDL_239 WL_169 VDD VSS SIGN_MEMFLCCSTRAPR
XI0_174 NDL_243 WL_170 VDD VSS SIGN_MEMFLCCSTRAPR
XI0_175 NDL_243 WL_171 VDD VSS SIGN_MEMFLCCSTRAPR
XI0_176 NDL_247 WL_172 VDD VSS SIGN_MEMFLCCSTRAPR
XI0_177 NDL_247 WL_173 VDD VSS SIGN_MEMFLCCSTRAPR
XI0_178 NDL_251 WL_174 VDD VSS SIGN_MEMFLCCSTRAPR
XI0_179 NDL_251 WL_175 VDD VSS SIGN_MEMFLCCSTRAPR
XI0_18 NDL_191 WL_14 VDD VSS SIGN_MEMFLCCSTRAPR
XI0_180 NDL_17 WL_176 VDD VSS SIGN_MEMFLCCSTRAPR
XI0_181 NDL_17 WL_177 VDD VSS SIGN_MEMFLCCSTRAPR
XI0_182 NDL_19 WL_178 VDD VSS SIGN_MEMFLCCSTRAPR
XI0_183 NDL_19 WL_179 VDD VSS SIGN_MEMFLCCSTRAPR
XI0_184 NDL_21 WL_180 VDD VSS SIGN_MEMFLCCSTRAPR
XI0_185 NDL_21 WL_181 VDD VSS SIGN_MEMFLCCSTRAPR
XI0_186 NDL_23 WL_182 VDD VSS SIGN_MEMFLCCSTRAPR
XI0_187 NDL_23 WL_183 VDD VSS SIGN_MEMFLCCSTRAPR
XI0_188 NDL_25 WL_184 VDD VSS SIGN_MEMFLCCSTRAPR
XI0_189 NDL_25 WL_185 VDD VSS SIGN_MEMFLCCSTRAPR
XI0_19 NDL_191 WL_15 VDD VSS SIGN_MEMFLCCSTRAPR
XI0_190 NDL_47 WL_186 VDD VSS SIGN_MEMFLCCSTRAPR
XI0_191 NDL_47 WL_187 VDD VSS SIGN_MEMFLCCSTRAPR
XI0_192 NDL_49 WL_188 VDD VSS SIGN_MEMFLCCSTRAPR
XI0_193 NDL_49 WL_189 VDD VSS SIGN_MEMFLCCSTRAPR
XI0_194 NDL_51 WL_190 VDD VSS SIGN_MEMFLCCSTRAPR
XI0_195 NDL_51 WL_191 VDD VSS SIGN_MEMFLCCSTRAPR
XI0_196 NDL_53 WL_192 VDD VSS SIGN_MEMFLCCSTRAPR
XI0_197 NDL_53 WL_193 VDD VSS SIGN_MEMFLCCSTRAPR
XI0_198 NDL_55 WL_194 VDD VSS SIGN_MEMFLCCSTRAPR
XI0_199 NDL_55 WL_195 VDD VSS SIGN_MEMFLCCSTRAPR
XI0_20 NDL_223 WL_16 VDD VSS SIGN_MEMFLCCSTRAPR
XI0_200 NDL_67 WL_196 VDD VSS SIGN_MEMFLCCSTRAPR
XI0_201 NDL_67 WL_197 VDD VSS SIGN_MEMFLCCSTRAPR
XI0_202 NDL_71 WL_198 VDD VSS SIGN_MEMFLCCSTRAPR
XI0_203 NDL_71 WL_199 VDD VSS SIGN_MEMFLCCSTRAPR
XI0_204 NDL_75 WL_200 VDD VSS SIGN_MEMFLCCSTRAPR
XI0_205 NDL_75 WL_201 VDD VSS SIGN_MEMFLCCSTRAPR
XI0_206 NDL_79 WL_202 VDD VSS SIGN_MEMFLCCSTRAPR
XI0_207 NDL_79 WL_203 VDD VSS SIGN_MEMFLCCSTRAPR
XI0_208 NDL_83 WL_204 VDD VSS SIGN_MEMFLCCSTRAPR
XI0_209 NDL_83 WL_205 VDD VSS SIGN_MEMFLCCSTRAPR
XI0_21 NDL_223 WL_17 VDD VSS SIGN_MEMFLCCSTRAPR
XI0_210 NDL_97 WL_206 VDD VSS SIGN_MEMFLCCSTRAPR
XI0_211 NDL_97 WL_207 VDD VSS SIGN_MEMFLCCSTRAPR
XI0_212 NDL_103 WL_208 VDD VSS SIGN_MEMFLCCSTRAPR
XI0_213 NDL_103 WL_209 VDD VSS SIGN_MEMFLCCSTRAPR
XI0_214 NDL_109 WL_210 VDD VSS SIGN_MEMFLCCSTRAPR
XI0_215 NDL_109 WL_211 VDD VSS SIGN_MEMFLCCSTRAPR
XI0_216 NDL_115 WL_212 VDD VSS SIGN_MEMFLCCSTRAPR
XI0_217 NDL_115 WL_213 VDD VSS SIGN_MEMFLCCSTRAPR
XI0_218 NDL_119 WL_214 VDD VSS SIGN_MEMFLCCSTRAPR
XI0_219 NDL_119 WL_215 VDD VSS SIGN_MEMFLCCSTRAPR
XI0_22 NDL_225 WL_18 VDD VSS SIGN_MEMFLCCSTRAPR
XI0_220 NDL_133 WL_216 VDD VSS SIGN_MEMFLCCSTRAPR
XI0_221 NDL_133 WL_217 VDD VSS SIGN_MEMFLCCSTRAPR
XI0_222 NDL_137 WL_218 VDD VSS SIGN_MEMFLCCSTRAPR
XI0_223 NDL_137 WL_219 VDD VSS SIGN_MEMFLCCSTRAPR
XI0_224 NDL_141 WL_220 VDD VSS SIGN_MEMFLCCSTRAPR
XI0_225 NDL_141 WL_221 VDD VSS SIGN_MEMFLCCSTRAPR
XI0_226 NDL_145 WL_222 VDD VSS SIGN_MEMFLCCSTRAPR
XI0_227 NDL_145 WL_223 VDD VSS SIGN_MEMFLCCSTRAPR
XI0_228 NDL_149 WL_224 VDD VSS SIGN_MEMFLCCSTRAPR
XI0_229 NDL_149 WL_225 VDD VSS SIGN_MEMFLCCSTRAPR
XI0_23 NDL_225 WL_19 VDD VSS SIGN_MEMFLCCSTRAPR
XI0_230 NDL_163 WL_226 VDD VSS SIGN_MEMFLCCSTRAPR
XI0_231 NDL_163 WL_227 VDD VSS SIGN_MEMFLCCSTRAPR
XI0_232 NDL_167 WL_228 VDD VSS SIGN_MEMFLCCSTRAPR
XI0_233 NDL_167 WL_229 VDD VSS SIGN_MEMFLCCSTRAPR
XI0_234 NDL_171 WL_230 VDD VSS SIGN_MEMFLCCSTRAPR
XI0_235 NDL_171 WL_231 VDD VSS SIGN_MEMFLCCSTRAPR
XI0_236 NDL_175 WL_232 VDD VSS SIGN_MEMFLCCSTRAPR
XI0_237 NDL_175 WL_233 VDD VSS SIGN_MEMFLCCSTRAPR
XI0_238 NDL_179 WL_234 VDD VSS SIGN_MEMFLCCSTRAPR
XI0_239 NDL_179 WL_235 VDD VSS SIGN_MEMFLCCSTRAPR
XI0_24 NDL_227 WL_20 VDD VSS SIGN_MEMFLCCSTRAPR
XI0_240 NDL_203 WL_236 VDD VSS SIGN_MEMFLCCSTRAPR
XI0_241 NDL_203 WL_237 VDD VSS SIGN_MEMFLCCSTRAPR
XI0_242 NDL_207 WL_238 VDD VSS SIGN_MEMFLCCSTRAPR
XI0_243 NDL_207 WL_239 VDD VSS SIGN_MEMFLCCSTRAPR
XI0_244 NDL_211 WL_240 VDD VSS SIGN_MEMFLCCSTRAPR
XI0_245 NDL_211 WL_241 VDD VSS SIGN_MEMFLCCSTRAPR
XI0_246 NDL_215 WL_242 VDD VSS SIGN_MEMFLCCSTRAPR
XI0_247 NDL_215 WL_243 VDD VSS SIGN_MEMFLCCSTRAPR
XI0_248 NDL_219 WL_244 VDD VSS SIGN_MEMFLCCSTRAPR
XI0_249 NDL_219 WL_245 VDD VSS SIGN_MEMFLCCSTRAPR
XI0_25 NDL_227 WL_21 VDD VSS SIGN_MEMFLCCSTRAPR
XI0_250 NDL_233 WL_246 VDD VSS SIGN_MEMFLCCSTRAPR
XI0_251 NDL_233 WL_247 VDD VSS SIGN_MEMFLCCSTRAPR
XI0_252 NDL_237 WL_248 VDD VSS SIGN_MEMFLCCSTRAPR
XI0_253 NDL_237 WL_249 VDD VSS SIGN_MEMFLCCSTRAPR
XI0_254 NDL_241 WL_250 VDD VSS SIGN_MEMFLCCSTRAPR
XI0_255 NDL_241 WL_251 VDD VSS SIGN_MEMFLCCSTRAPR
XI0_256 NDL_245 WL_252 VDD VSS SIGN_MEMFLCCSTRAPR
XI0_257 NDL_245 WL_253 VDD VSS SIGN_MEMFLCCSTRAPR
XI0_258 NDL_249 WL_254 VDD VSS SIGN_MEMFLCCSTRAPR
XI0_259 NDL_249 WL_255 VDD VSS SIGN_MEMFLCCSTRAPR
XI0_26 NDL_229 WL_22 VDD VSS SIGN_MEMFLCCSTRAPR
XI0_261 NDL_13 VSS VDD VSS SIGN_MEMFLCCSTRAPR
XI0_262 NDL_13 VSS VDD VSS SIGN_MEMFLCCSTRAPR
XI0_27 NDL_229 WL_23 VDD VSS SIGN_MEMFLCCSTRAPR
XI0_28 NDL_231 WL_24 VDD VSS SIGN_MEMFLCCSTRAPR
XI0_29 NDL_231 WL_25 VDD VSS SIGN_MEMFLCCSTRAPR
XI0_30 NDL_253 WL_26 VDD VSS SIGN_MEMFLCCSTRAPR
XI0_31 NDL_253 WL_27 VDD VSS SIGN_MEMFLCCSTRAPR
XI0_32 NDL_255 WL_28 VDD VSS SIGN_MEMFLCCSTRAPR
XI0_33 NDL_255 WL_29 VDD VSS SIGN_MEMFLCCSTRAPR
XI0_34 NDL WL_30 VDD VSS SIGN_MEMFLCCSTRAPR
XI0_35 NDL WL_31 VDD VSS SIGN_MEMFLCCSTRAPR
XI0_36 NDL_1 WL_32 VDD VSS SIGN_MEMFLCCSTRAPR
XI0_37 NDL_1 WL_33 VDD VSS SIGN_MEMFLCCSTRAPR
XI0_38 NDL_3 WL_34 VDD VSS SIGN_MEMFLCCSTRAPR
XI0_39 NDL_3 WL_35 VDD VSS SIGN_MEMFLCCSTRAPR
XI0_4 NDL_99 WL_0 VDD VSS SIGN_MEMFLCCSTRAPR
XI0_40 NDL_27 WL_36 VDD VSS SIGN_MEMFLCCSTRAPR
XI0_41 NDL_27 WL_37 VDD VSS SIGN_MEMFLCCSTRAPR
XI0_42 NDL_29 WL_38 VDD VSS SIGN_MEMFLCCSTRAPR
XI0_43 NDL_29 WL_39 VDD VSS SIGN_MEMFLCCSTRAPR
XI0_44 NDL_31 WL_40 VDD VSS SIGN_MEMFLCCSTRAPR
XI0_45 NDL_31 WL_41 VDD VSS SIGN_MEMFLCCSTRAPR
XI0_46 NDL_33 WL_42 VDD VSS SIGN_MEMFLCCSTRAPR
XI0_47 NDL_33 WL_43 VDD VSS SIGN_MEMFLCCSTRAPR
XI0_48 NDL_35 WL_44 VDD VSS SIGN_MEMFLCCSTRAPR
XI0_49 NDL_35 WL_45 VDD VSS SIGN_MEMFLCCSTRAPR
XI0_5 NDL_99 WL_1 VDD VSS SIGN_MEMFLCCSTRAPR
XI0_50 NDL_57 WL_46 VDD VSS SIGN_MEMFLCCSTRAPR
XI0_51 NDL_57 WL_47 VDD VSS SIGN_MEMFLCCSTRAPR
XI0_52 NDL_59 WL_48 VDD VSS SIGN_MEMFLCCSTRAPR
XI0_53 NDL_59 WL_49 VDD VSS SIGN_MEMFLCCSTRAPR
XI0_54 NDL_61 WL_50 VDD VSS SIGN_MEMFLCCSTRAPR
XI0_55 NDL_61 WL_51 VDD VSS SIGN_MEMFLCCSTRAPR
XI0_56 NDL_63 WL_52 VDD VSS SIGN_MEMFLCCSTRAPR
XI0_57 NDL_63 WL_53 VDD VSS SIGN_MEMFLCCSTRAPR
XI0_58 NDL_65 WL_54 VDD VSS SIGN_MEMFLCCSTRAPR
XI0_59 NDL_65 WL_55 VDD VSS SIGN_MEMFLCCSTRAPR
XI0_6 NDL_105 WL_2 VDD VSS SIGN_MEMFLCCSTRAPR
XI0_60 NDL_87 WL_56 VDD VSS SIGN_MEMFLCCSTRAPR
XI0_61 NDL_87 WL_57 VDD VSS SIGN_MEMFLCCSTRAPR
XI0_62 NDL_89 WL_58 VDD VSS SIGN_MEMFLCCSTRAPR
XI0_63 NDL_89 WL_59 VDD VSS SIGN_MEMFLCCSTRAPR
XI0_64 NDL_91 WL_60 VDD VSS SIGN_MEMFLCCSTRAPR
XI0_65 NDL_91 WL_61 VDD VSS SIGN_MEMFLCCSTRAPR
XI0_66 NDL_93 WL_62 VDD VSS SIGN_MEMFLCCSTRAPR
XI0_67 NDL_93 WL_63 VDD VSS SIGN_MEMFLCCSTRAPR
XI0_68 NDL_95 WL_64 VDD VSS SIGN_MEMFLCCSTRAPR
XI0_69 NDL_95 WL_65 VDD VSS SIGN_MEMFLCCSTRAPR
XI0_7 NDL_105 WL_3 VDD VSS SIGN_MEMFLCCSTRAPR
XI0_70 NDL_123 WL_66 VDD VSS SIGN_MEMFLCCSTRAPR
XI0_71 NDL_123 WL_67 VDD VSS SIGN_MEMFLCCSTRAPR
XI0_72 NDL_125 WL_68 VDD VSS SIGN_MEMFLCCSTRAPR
XI0_73 NDL_125 WL_69 VDD VSS SIGN_MEMFLCCSTRAPR
XI0_74 NDL_127 WL_70 VDD VSS SIGN_MEMFLCCSTRAPR
XI0_75 NDL_127 WL_71 VDD VSS SIGN_MEMFLCCSTRAPR
XI0_76 NDL_129 WL_72 VDD VSS SIGN_MEMFLCCSTRAPR
XI0_77 NDL_129 WL_73 VDD VSS SIGN_MEMFLCCSTRAPR
XI0_78 NDL_131 WL_74 VDD VSS SIGN_MEMFLCCSTRAPR
XI0_79 NDL_131 WL_75 VDD VSS SIGN_MEMFLCCSTRAPR
XI0_8 NDL_111 WL_4 VDD VSS SIGN_MEMFLCCSTRAPR
XI0_80 NDL_153 WL_76 VDD VSS SIGN_MEMFLCCSTRAPR
XI0_81 NDL_153 WL_77 VDD VSS SIGN_MEMFLCCSTRAPR
XI0_82 NDL_155 WL_78 VDD VSS SIGN_MEMFLCCSTRAPR
XI0_83 NDL_155 WL_79 VDD VSS SIGN_MEMFLCCSTRAPR
XI0_84 NDL_157 WL_80 VDD VSS SIGN_MEMFLCCSTRAPR
XI0_85 NDL_157 WL_81 VDD VSS SIGN_MEMFLCCSTRAPR
XI0_86 NDL_159 WL_82 VDD VSS SIGN_MEMFLCCSTRAPR
XI0_87 NDL_159 WL_83 VDD VSS SIGN_MEMFLCCSTRAPR
XI0_88 NDL_161 WL_84 VDD VSS SIGN_MEMFLCCSTRAPR
XI0_89 NDL_161 WL_85 VDD VSS SIGN_MEMFLCCSTRAPR
XI0_9 NDL_111 WL_5 VDD VSS SIGN_MEMFLCCSTRAPR
XI0_90 NDL_193 WL_86 VDD VSS SIGN_MEMFLCCSTRAPR
XI0_91 NDL_193 WL_87 VDD VSS SIGN_MEMFLCCSTRAPR
XI0_92 NDL_195 WL_88 VDD VSS SIGN_MEMFLCCSTRAPR
XI0_93 NDL_195 WL_89 VDD VSS SIGN_MEMFLCCSTRAPR
XI0_94 NDL_197 WL_90 VDD VSS SIGN_MEMFLCCSTRAPR
XI0_95 NDL_197 WL_91 VDD VSS SIGN_MEMFLCCSTRAPR
XI0_96 NDL_199 WL_92 VDD VSS SIGN_MEMFLCCSTRAPR
XI0_97 NDL_199 WL_93 VDD VSS SIGN_MEMFLCCSTRAPR
XI0_98 NDL_201 WL_94 VDD VSS SIGN_MEMFLCCSTRAPR
XI0_99 NDL_201 WL_95 VDD VSS SIGN_MEMFLCCSTRAPR
.ENDS SIGN_MEMLEFT_CAP
****
.SUBCKT SIGN_MEMFCBWLE16 BWEN D Q VDD VSS
** SIGN_MEMFCBWLE16: 3 flat devices **
d1 VSS Q tdndsx AREA=0.1024P PERIM=1.28U
d2 VSS BWEN tdndsx AREA=0.1024P PERIM=1.28U
d3 VSS D tdndsx AREA=0.1024P PERIM=1.28U
.ENDS SIGN_MEMFCBWLE16
****
.SUBCKT SIGN_MEMFCBWLX BWEN D Q VDD VSS
** SIGN_MEMFCBWLX: 3 flat devices **
XI0_0 BWEN D Q VDD VSS SIGN_MEMFCBWLE16
.ENDS SIGN_MEMFCBWLX
****
.SUBCKT SIGN_MEMFLIO GTP OE_ WE VDD VSS
** SIGN_MEMFLIO: 3 flat devices **
d1 VSS GTP tdndsx AREA=0.1024P PERIM=1.28U
d2 VSS OE_ tdndsx AREA=0.1024P PERIM=1.28U
d3 VSS WE tdndsx AREA=0.1024P PERIM=1.28U
.ENDS SIGN_MEMFLIO
****
.SUBCKT SIGN_MEMIO8 BWE BWEN D DPN DPU DW DW_ GTP OE_ Q SP STUBWE STUBWEI WE
+  VDD VSS
** SIGN_MEMIO8: 58 flat devices **
m1 QI DPU VSS VSS LPNFET L=0.12U W=1.9U
m10 QPD OEI_ VSS VSS LPNFET L=0.12U W=0.28U
m11 QIL QI VDD VDD LPPFET L=0.12U W=1U
m12 QIL QI VSS VSS LPNFET L=0.12U W=0.4U
m13 SPN SP VDD VDD LPPFET L=0.12U W=0.28U
m14 SPN SP VSS VSS LPNFET L=0.12U W=0.18U
m15 DWPD GTPND DWI VSS LPNFET L=0.12U W=0.72U
m16 DWPD DW VDD VDD LPPFET L=0.18U W=0.16U
m17 DWPD DW VSS VSS LPNFET L=0.66U W=0.16U
m18 DWPD GTP DWI VDD LPPFET L=0.12U W=0.86U
m19 DW_PU GTPND DNWI VSS LPNFET L=0.12U W=0.72U
m2 QI DPN VDD VDD LPPFET L=0.12U W=6U
m20 DW_PU GTP DNWI VDD LPPFET L=0.12U W=0.86U
m21 GTPND GTP VDD VDD LPPFET L=0.12U W=0.56U
m22 GTPND GTP VSS VSS LPNFET L=0.12U W=0.48U
m23 DI N48 VDD VDD LPPFET L=0.12U W=1.26U
m24 DI N48 VSS VSS LPNFET L=0.12U W=0.64U
m25 DNN DI VDD VDD LPPFET L=0.12U W=0.88U
m26 DNN DI VSS VSS LPNFET L=0.12U W=0.44U
m27 WEI N53 VDD VDD LPPFET L=0.12U W=1.02U
m28 WEI N53 VSS VSS LPNFET L=0.12U W=0.62U
m29 OEI OEI_ VDD VDD LPPFET L=0.12U W=0.78U
m3 Q QPU VDD VDD LPPFET L=0.12U W=7U
m30 OEI OEI_ VSS VSS LPNFET L=0.12U W=0.42U
m31 QI SP N79 VDD LPPFET L=0.12U W=1.08U
m32 N79 QIL VDD VDD LPPFET L=0.12U W=1.08U
m33 QI SPN N78 VSS LPNFET L=0.12U W=1.08U
m34 N78 QIL VSS VSS LPNFET L=0.12U W=1.08U
m35 N35 OE_ VDD VDD LPPFET L=0.12U W=0.34U
m36 N35 OE_ VSS VSS LPNFET L=0.12U W=0.18U
m37 N53 WE VDD VDD LPPFET L=0.12U W=0.42U
m38 N53 WE VSS VSS LPNFET L=0.12U W=0.22U
m39 DWI WEI VDD VDD LPPFET L=0.12U W=1.24U
m4 Q QPD VSS VSS LPNFET L=0.12U W=2.8U
m40 N80 WEI VSS VSS LPNFET L=0.12U W=1.12U
m41 DWI DI VDD VDD LPPFET L=0.12U W=1.24U
m42 DWI DI N80 VSS LPNFET L=0.12U W=1.12U
m43 DNWI WEI VDD VDD LPPFET L=0.12U W=1.24U
m44 N81 WEI VSS VSS LPNFET L=0.12U W=1.12U
m45 DNWI DNN VDD VDD LPPFET L=0.12U W=1.24U
m46 DNWI DNN N81 VSS LPNFET L=0.12U W=1.12U
m47 N48 D VDD VDD LPPFET L=0.12U W=0.5U
m48 N48 D VSS VSS LPNFET L=0.12U W=0.26U
m49 QPU OEI_ QI VDD LPPFET L=0.12U W=0.22U
m5 OEI_ N35 VDD VDD LPPFET L=0.12U W=0.94U
m50 QPD OEI QI VSS LPNFET L=0.12U W=0.27U
m51 DW DWPD VDD VDD LPPFET L=0.12U W=4.24U
m52 DW DWPD VSS VSS LPNFET L=0.12U W=2.12U
m53 DW_PU DW_ VDD VDD LPPFET L=0.18U W=0.16U
m54 DW_PU DW_ VSS VSS LPNFET L=0.66U W=0.16U
m55 DW_ DW_PU VDD VDD LPPFET L=0.12U W=4.24U
m56 DW_ DW_PU VSS VSS LPNFET L=0.12U W=2.12U
m57 BWE BWEN VDD VDD LPPFET L=0.12U W=1.56U
m58 BWE BWEN VSS VSS LPNFET L=0.12U W=0.78U
m6 OEI_ N35 VSS VSS LPNFET L=0.12U W=0.48U
m7 QPD OEI_ QI VDD LPPFET L=0.12U W=2.64U
m8 QPU OEI QI VSS LPNFET L=0.12U W=2.1U
m9 QPU OEI VDD VDD LPPFET L=0.12U W=1.12U
.ENDS SIGN_MEMIO8
****
.SUBCKT SIGN_MEMIOX D DPN DPU DW DW_ GTP OE_ Q SP STUBWEI VDD VSS
** SIGN_MEMIOX: 58 flat devices **
XI0_0 BWE VSS D DPN DPU DW DW_ GTP OE_ Q SP STUBWEI STUBWEI STUBWEI VDD VSS
+  SIGN_MEMIO8
.ENDS SIGN_MEMIOX
****
.SUBCKT SIGN_MEMFLSA GTP VDD VSS
** SIGN_MEMFLSA: 1 flat devices **
d1 VSS GTP tdndsx AREA=0.1024P PERIM=1.28U
.ENDS SIGN_MEMFLSA
****
.SUBCKT SIGN_MEMSA8 DPN DPU DR DR_ DW DW_ GTP SP VDD VSS
** SIGN_MEMSA8: 41 flat devices **
m1 N22 SRCD VSS VSS LPNFET L=0.12U W=1.52U
m10 DPN SDN VDD VDD LPPFET L=0.12U W=1.54U
m11 DPN SDN VSS VSS LPNFET L=0.12U W=2.92U
m12 SP SPN VDD VDD LPPFET L=0.12U W=1.56U
m13 SP SPN VSS VSS LPNFET L=0.12U W=1.06U
m14 GTPN GTP VDD VDD LPPFET L=0.12U W=1U
m15 GTPN GTP VSS VSS LPNFET L=0.12U W=0.72U
m16 ND1 GTPN VDD VDD LPPFET L=0.12U W=0.52U
m17 ND1 GTPN VSS VSS LPNFET L=0.12U W=0.24U
m18 ND2 ND1 VDD VDD LPPFET L=0.12U W=0.34U
m19 ND2 ND1 VSS VSS LPNFET L=0.12U W=0.62U
m2 SD SP DR VDD LPPFET L=0.12U W=1.56U
m20 N40 DRP VSS VSS LPNFET L=0.12U W=0.98U
m21 SPN GTPN N40 VSS LPNFET L=0.12U W=0.68U
m22 SPN DRP VDD VDD LPPFET L=0.12U W=0.76U
m23 SPN GTPN VDD VDD LPPFET L=0.12U W=0.52U
m24 DRP ND2 VDD VDD LPPFET L=0.12U W=2.4U
m25 DRP ND2 VSS VSS LPNFET L=0.12U W=1U
m26 DR_ DRP VDD VDD LPPFET L=0.12U W=2.44U
m27 DR DRP VDD VDD LPPFET L=0.12U W=2.44U
m28 DR DRP DR_ VDD LPPFET L=0.12U W=2.44U
m29 SD_ SD SRC VSS LPNFET L=0.18U W=3.28U
m3 SD_ SP DR_ VDD LPPFET L=0.12U W=1.56U
m30 SD SD_ SRC VSS LPNFET L=0.18U W=3.28U
m31 SD_ SD SRC VSS LPNFET L=0.18U W=3.28U
m32 SD SD_ SRC VSS LPNFET L=0.18U W=3.28U
m33 SRC GTPN N22 VSS LPNFET L=0.12U W=1.66U
m34 SRCD SRCPU VDD VDD LPPFET L=0.12U W=0.46U
m35 SRCD SRCPU VSS VSS LPNFET L=0.12U W=0.22U
m36 SRCPU DRP VDD VDD LPPFET L=0.12U W=0.68U
m37 SRCPU DRP VSS VSS LPNFET L=0.12U W=0.26U
m38 VDD SRCPU SRC VSS LPNFET L=0.12U W=1.68U
m39 SD SRCD SD_ VDD LPPFET L=0.12U W=0.44U
m4 SD_ SD VDD VDD LPPFET L=0.12U W=0.84U
m40 SRC GTPN N52 VSS LPNFET L=0.12U W=1.66U
m41 N52 SRCD VSS VSS LPNFET L=0.12U W=1.52U
m5 SD SD_ VDD VDD LPPFET L=0.12U W=0.84U
m6 SDN SD VDD VDD LPPFET L=0.12U W=1.64U
m7 SDN SD VSS VSS LPNFET L=0.12U W=0.6U
m8 DPU SD_ VDD VDD LPPFET L=0.12U W=1.64U
m9 DPU SD_ VSS VSS LPNFET L=0.12U W=0.6U
.ENDS SIGN_MEMSA8
****
.SUBCKT SIGN_MEMCD A0 A0_ BL0 BL0_ BL1 BL1_ DR DRSA DR_ DW DWSA DW_ G0 G1 GTP
+  STUBDR STUBDR_ STUBDW STUBDW_ YP0_0 YP0_1 YP0_2 YP0_3 YP1_0 YP1_1 YP1_2
+  YP1_3 VDD VSS
** SIGN_MEMCD: 43 flat devices **
m1 BL0_ CS0 DR_ VDD LPPFET L=0.12U W=2.16U
m10 BL1_ BL1PD VSS VSS LPNFET L=0.12U W=4.8U
m11 BL1_PD CS1 DW_ VDD LPPFET L=0.12U W=1.22U
m12 BL1_PD CS1 VSS VSS LPNFET L=0.12U W=0.64U
m13 BL1_ CS1 DR_ VDD LPPFET L=0.12U W=2.16U
m14 BL1PD CS1 DW VDD LPPFET L=0.12U W=1.22U
m15 BL1PD CS1 VSS VSS LPNFET L=0.12U W=0.64U
m16 BL1 BL1_PD VSS VSS LPNFET L=0.12U W=4.8U
m17 BL0_ YI VDD VDD LPPFET L=0.12U W=5U
m18 BL0 YI VDD VDD LPPFET L=0.12U W=5U
m19 BL0 YI BL0_ VDD LPPFET L=0.12U W=5U
m2 BL0 BL0PD VSS VSS LPNFET L=0.12U W=4.8U
m20 BL1 YI VDD VDD LPPFET L=0.12U W=5U
m21 BL1_ YI VDD VDD LPPFET L=0.12U W=5U
m22 BL1_ YI BL1 VDD LPPFET L=0.12U W=5U
m23 CS0 A0_ VDD VDD LPPFET L=0.12U W=1.48U
m24 N65 A0_ VSS VSS LPNFET L=0.12U W=1.52U
m25 CS0 YI VDD VDD LPPFET L=0.12U W=1.48U
m26 CS0 YI N65 VSS LPNFET L=0.12U W=1.52U
m27 CS1 A0 VDD VDD LPPFET L=0.12U W=1.48U
m28 N66 A0 VSS VSS LPNFET L=0.12U W=1.52U
m29 CS1 YI VDD VDD LPPFET L=0.12U W=1.48U
m3 BL0_PD CS0 DW VDD LPPFET L=0.12U W=1.22U
m30 CS1 YI N66 VSS LPNFET L=0.12U W=1.52U
m31 YCDSEL_ G0 VDD VDD LPPFET L=0.12U W=0.36U
m32 N67 G0 VSS VSS LPNFET L=0.12U W=0.34U
m33 YCDSEL_ G1 VDD VDD LPPFET L=0.12U W=0.36U
m34 YCDSEL_ G1 N67 VSS LPNFET L=0.12U W=0.34U
m35 YCDSEL YCDSEL_ VDD VDD LPPFET L=0.12U W=0.34U
m36 YCDSEL YCDSEL_ VSS VSS LPNFET L=0.12U W=0.16U
m37 N37 YCDSEL_ GTP VDD LPPFET L=0.12U W=0.78U
m38 N37 YCDSEL_ VSS VSS LPNFET L=0.12U W=0.28U
m39 YI WL1_EN_ VDD VDD LPPFET L=0.12U W=5.88U
m4 BL0_PD CS0 VSS VSS LPNFET L=0.12U W=0.64U
m40 YI WL1_EN_ VSS VSS LPNFET L=0.12U W=3.5U
m41 WL1_EN_ N37 VDD VDD LPPFET L=0.12U W=2.82U
m42 WL1_EN_ N37 VSS VSS LPNFET L=0.12U W=1.34U
m43 N37 YCDSEL GTP VSS LPNFET L=0.12U W=0.78U
m5 BL0 CS0 DR VDD LPPFET L=0.12U W=2.16U
m6 BL0PD CS0 DW_ VDD LPPFET L=0.12U W=1.22U
m7 BL0PD CS0 VSS VSS LPNFET L=0.12U W=0.64U
m8 BL0_ BL0_PD VSS VSS LPNFET L=0.12U W=4.8U
m9 BL1 CS1 DR VDD LPPFET L=0.12U W=2.16U
.ENDS SIGN_MEMCD
****
.SUBCKT SIGN_MEMCD2 A0 A0_ BL0 BL0_ BL1 BL1_ DR DRSA DR_ DW DWSA DW_ G0 G1 GTP
+  STUBDR STUBDR_ STUBDW STUBDW_ YP0_0 YP0_1 YP0_2 YP0_3 YP1_0 YP1_1 YP1_2
+  YP1_3 VDD VSS
** SIGN_MEMCD2: 43 flat devices **
m1 BL0_ CS0 DR_ VDD LPPFET L=0.12U W=2.16U
m10 BL1_ BL1PD VSS VSS LPNFET L=0.12U W=4.8U
m11 BL1_PD CS1 DW_ VDD LPPFET L=0.12U W=1.22U
m12 BL1_PD CS1 VSS VSS LPNFET L=0.12U W=0.64U
m13 BL1_ CS1 DR_ VDD LPPFET L=0.12U W=2.16U
m14 BL1PD CS1 DW VDD LPPFET L=0.12U W=1.22U
m15 BL1PD CS1 VSS VSS LPNFET L=0.12U W=0.64U
m16 BL1 BL1_PD VSS VSS LPNFET L=0.12U W=4.8U
m17 BL0_ YI VDD VDD LPPFET L=0.12U W=5U
m18 BL0 YI VDD VDD LPPFET L=0.12U W=5U
m19 BL0 YI BL0_ VDD LPPFET L=0.12U W=5U
m2 BL0 BL0PD VSS VSS LPNFET L=0.12U W=4.8U
m20 BL1 YI VDD VDD LPPFET L=0.12U W=5U
m21 BL1_ YI VDD VDD LPPFET L=0.12U W=5U
m22 BL1_ YI BL1 VDD LPPFET L=0.12U W=5U
m23 CS0 A0_ VDD VDD LPPFET L=0.12U W=1.48U
m24 N65 A0_ VSS VSS LPNFET L=0.12U W=1.52U
m25 CS0 YI VDD VDD LPPFET L=0.12U W=1.48U
m26 CS0 YI N65 VSS LPNFET L=0.12U W=1.52U
m27 CS1 A0 VDD VDD LPPFET L=0.12U W=1.48U
m28 N66 A0 VSS VSS LPNFET L=0.12U W=1.52U
m29 CS1 YI VDD VDD LPPFET L=0.12U W=1.48U
m3 BL0_PD CS0 DW VDD LPPFET L=0.12U W=1.22U
m30 CS1 YI N66 VSS LPNFET L=0.12U W=1.52U
m31 YCDSEL_ G0 VDD VDD LPPFET L=0.12U W=0.36U
m32 N67 G0 VSS VSS LPNFET L=0.12U W=0.34U
m33 YCDSEL_ G1 VDD VDD LPPFET L=0.12U W=0.36U
m34 YCDSEL_ G1 N67 VSS LPNFET L=0.12U W=0.34U
m35 YCDSEL YCDSEL_ VDD VDD LPPFET L=0.12U W=0.34U
m36 YCDSEL YCDSEL_ VSS VSS LPNFET L=0.12U W=0.16U
m37 N37 YCDSEL_ GTP VDD LPPFET L=0.12U W=0.78U
m38 N37 YCDSEL_ VSS VSS LPNFET L=0.12U W=0.28U
m39 YI WL1_EN_ VDD VDD LPPFET L=0.12U W=5.88U
m4 BL0_PD CS0 VSS VSS LPNFET L=0.12U W=0.64U
m40 YI WL1_EN_ VSS VSS LPNFET L=0.12U W=3.5U
m41 WL1_EN_ N37 VDD VDD LPPFET L=0.12U W=2.82U
m42 WL1_EN_ N37 VSS VSS LPNFET L=0.12U W=1.34U
m43 N37 YCDSEL GTP VSS LPNFET L=0.12U W=0.78U
m5 BL0 CS0 DR VDD LPPFET L=0.12U W=2.16U
m6 BL0PD CS0 DW_ VDD LPPFET L=0.12U W=1.22U
m7 BL0PD CS0 VSS VSS LPNFET L=0.12U W=0.64U
m8 BL0_ BL0_PD VSS VSS LPNFET L=0.12U W=4.8U
m9 BL1 CS1 DR VDD LPPFET L=0.12U W=2.16U
.ENDS SIGN_MEMCD2
****
.SUBCKT SIGN_MEMMUX_CD_EVEN A0 A0_ BL0_0 BL0_1 BL0_2 BL0_3 BL0_4 BL0_5 BL0_6
+  BL0_7 BL0__0 BL0__1 BL0__2 BL0__3 BL0__4 BL0__5 BL0__6 BL0__7 BL1_0 BL1_1
+  BL1_2 BL1_3 BL1_4 BL1_5 BL1_6 BL1_7 BL1__0 BL1__1 BL1__2 BL1__3 BL1__4
+  BL1__5 BL1__6 BL1__7 DRSA_0 DRSA_1 DRSA_2 DRSA_3 DRSA_4 DRSA_5 DRSA_6
+  DRSA_7 DWSA_0 DWSA_1 DWSA_2 DWSA_3 DWSA_4 DWSA_5 DWSA_6 DWSA_7 GTP STUBDR
+  STUBDR_ STUBDW STUBDW_ YP0_0 YP0_1 YP0_2 YP0_3 YP1_0 YP1_1 YP1_2 YP1_3 VDD
+  VSS
** SIGN_MEMMUX_CD_EVEN: 344 flat devices **
XI0_0 A0 A0_ BL0_0 BL0__0 BL1_0 BL1__0 DRSA_5 DRSA_0 DRSA_6 DWSA_5 DWSA_0
+  DWSA_6 YP0_0 VDD GTP DRSA_5 DRSA_6 DWSA_5 DWSA_6 YP0_0 YP0_1 YP0_2 YP0_3
+  YP1_0 YP1_1 YP1_2 YP1_3 VDD VSS SIGN_MEMCD
XI1_0 A0 A0_ BL0_1 BL0__1 BL1_1 BL1__1 DRSA_5 DRSA_1 DRSA_6 DWSA_5 DWSA_1
+  DWSA_6 YP0_1 VDD GTP DRSA_5 DRSA_6 DWSA_5 DWSA_6 YP0_0 YP0_1 YP0_2 YP0_3
+  YP1_0 YP1_1 YP1_2 YP1_3 VDD VSS SIGN_MEMCD2
XI2_0 A0 A0_ BL0_2 BL0__2 BL1_2 BL1__2 DRSA_5 DRSA_2 DRSA_6 DWSA_5 DWSA_2
+  DWSA_6 YP0_2 VDD GTP DRSA_5 DRSA_6 DWSA_5 DWSA_6 YP0_0 YP0_1 YP0_2 YP0_3
+  YP1_0 YP1_1 YP1_2 YP1_3 VDD VSS SIGN_MEMCD
XI3_0 A0 A0_ BL0_3 BL0__3 BL1_3 BL1__3 DRSA_5 DRSA_3 DRSA_6 DWSA_5 DWSA_3
+  DWSA_6 YP0_3 VDD GTP DRSA_5 DRSA_6 DWSA_5 DWSA_6 YP0_0 YP0_1 YP0_2 YP0_3
+  YP1_0 YP1_1 YP1_2 YP1_3 VDD VSS SIGN_MEMCD2
XI4_0 A0 A0_ BL0_4 BL0__4 BL1_4 BL1__4 DRSA_5 DRSA_4 DRSA_6 DWSA_5 DWSA_4
+  DWSA_6 VDD YP1_0 GTP DRSA_5 DRSA_6 DWSA_5 DWSA_6 YP0_0 YP0_1 YP0_2 YP0_3
+  YP1_0 YP1_1 YP1_2 YP1_3 VDD VSS SIGN_MEMCD
XI5_0 A0 A0_ BL0_5 BL0__5 BL1_5 BL1__5 DRSA_5 DRSA_5 DRSA_6 DWSA_5 DWSA_5
+  DWSA_6 VDD YP1_1 GTP DRSA_5 DRSA_6 DWSA_5 DWSA_6 YP0_0 YP0_1 YP0_2 YP0_3
+  YP1_0 YP1_1 YP1_2 YP1_3 VDD VSS SIGN_MEMCD2
XI6_0 A0 A0_ BL0_6 BL0__6 BL1_6 BL1__6 DRSA_5 DRSA_6 DRSA_6 DWSA_5 DWSA_6
+  DWSA_6 VDD YP1_2 GTP DRSA_5 DRSA_6 DWSA_5 DWSA_6 YP0_0 YP0_1 YP0_2 YP0_3
+  YP1_0 YP1_1 YP1_2 YP1_3 VDD VSS SIGN_MEMCD
XI7_0 A0 A0_ BL0_7 BL0__7 BL1_7 BL1__7 DRSA_5 DRSA_7 DRSA_6 DWSA_5 DWSA_7
+  DWSA_6 VDD YP1_3 GTP STUBDR STUBDR_ STUBDW STUBDW_ YP0_0 YP0_1 YP0_2 YP0_3
+  YP1_0 YP1_1 YP1_2 YP1_3 VDD VSS SIGN_MEMCD2
.ENDS SIGN_MEMMUX_CD_EVEN
****
.SUBCKT SIGN_MEMCCEP BL BL_ WL WP VDD VSS
** SIGN_MEMCCEP: 6 flat devices **
m1 BL WP CORED VSS LPNFET L=0.13U W=0.16U
m2 BL_ WP CORED_ VSS LPNFET L=0.13U W=0.16U
m3 CORED_ CORED VDD VDD LPPFET L=0.12U W=0.15U
m4 CORED_ CORED VSS VSS LPNFET L=0.1U W=0.2U
m5 CORED CORED_ VDD VDD LPPFET L=0.12U W=0.15U
m6 CORED CORED_ VSS VSS LPNFET L=0.1U W=0.2U
.ENDS SIGN_MEMCCEP
****
.SUBCKT SIGN_MEMCCOG BL BL_ WL WP VDD VSS
** SIGN_MEMCCOG: 6 flat devices **
m1 BL WP CORED VSS LPNFET L=0.13U W=0.16U
m2 BL_ WP CORED_ VSS LPNFET L=0.13U W=0.16U
m3 CORED_ CORED VDD VDD LPPFET L=0.12U W=0.15U
m4 CORED_ CORED VSS VSS LPNFET L=0.1U W=0.2U
m5 CORED CORED_ VDD VDD LPPFET L=0.12U W=0.15U
m6 CORED CORED_ VSS VSS LPNFET L=0.1U W=0.2U
.ENDS SIGN_MEMCCOG
****
.SUBCKT SIGN_MEMCCEG BL BL_ WL WP VDD VSS
** SIGN_MEMCCEG: 6 flat devices **
m1 BL WP CORED VSS LPNFET L=0.13U W=0.16U
m2 BL_ WP CORED_ VSS LPNFET L=0.13U W=0.16U
m3 CORED_ CORED VDD VDD LPPFET L=0.12U W=0.15U
m4 CORED_ CORED VSS VSS LPNFET L=0.1U W=0.2U
m5 CORED CORED_ VDD VDD LPPFET L=0.12U W=0.15U
m6 CORED CORED_ VSS VSS LPNFET L=0.1U W=0.2U
.ENDS SIGN_MEMCCEG
****
.SUBCKT SIGN_MEMCCOP BL BL_ WL WP VDD VSS
** SIGN_MEMCCOP: 6 flat devices **
m1 BL WP CORED VSS LPNFET L=0.13U W=0.16U
m2 BL_ WP CORED_ VSS LPNFET L=0.13U W=0.16U
m3 CORED_ CORED VDD VDD LPPFET L=0.12U W=0.15U
m4 CORED_ CORED VSS VSS LPNFET L=0.1U W=0.2U
m5 CORED CORED_ VDD VDD LPPFET L=0.12U W=0.15U
m6 CORED CORED_ VSS VSS LPNFET L=0.1U W=0.2U
.ENDS SIGN_MEMCCOP
****
.SUBCKT SIGN_MEMBIT_MUX_3 BL_0 BL_1 BL_2 BL_3 BL_4 BL_5 BL_6 BL_7 BL_8 BL_9
+  BL_10 BL_11 BL_12 BL_13 BL_14 BL_15 BL__0 BL__1 BL__2 BL__3 BL__4 BL__5
+  BL__6 BL__7 BL__8 BL__9 BL__10 BL__11 BL__12 BL__13 BL__14 BL__15 WL WP VDD
+  VSS
** SIGN_MEMBIT_MUX_3: 96 flat devices **
XI0_0 BL_0 BL__0 WL WP VDD VSS SIGN_MEMCCEG
XI10_0 BL_10 BL__10 WL WP VDD VSS SIGN_MEMCCEP
XI11_0 BL_11 BL__11 WL WP VDD VSS SIGN_MEMCCOG
XI12_0 BL_12 BL__12 WL WP VDD VSS SIGN_MEMCCEG