$ Spice netlist generated by v2lvs
$ v2021.3_15.9    Tue Jul 6 13:44:20 PDT 2021
.INCLUDE "/afs/umich.edu/class/eecs627/ibm13/artisan/current/aci/sc-x/lvs_netlist/ibm13.cdl" 
.INCLUDE "/afs/umich.edu/class/eecs627/w23/lab_resource/lab3/reset_driver.cdl" 
*.BUSDELIMITER < 

.SUBCKT buffer_3 reset wrb_data<7> wrb_data<6> wrb_data<5> wrb_data<4> 
+ wrb_data<3> wrb_data<2> wrb_data<1> wrb_data<0> wrb_addr<3> wrb_addr<2> 
+ wrb_addr<1> wrb_addr<0> wrb rdb_addr<3> rdb_addr<2> rdb_addr<1> rdb_addr<0> 
+ data_out<7> data_out<6> data_out<5> data_out<4> data_out<3> data_out<2> 
+ data_out<1> data_out<0> FE_OFN7_reset clk_clone2 clk_clone1 clk 
XPLACEDFE_OFC121_n60 CLKBUFX2TR $PINS A=FE_OFN33_n60 Y=FE_OFN58_n60 
XPLACEDFE_OFC120_n60 BUFX3TR $PINS A=n60 Y=FE_OFN33_n60 
XCTS_ccl_a_inv_00012 CLKINVX20TR $PINS A=clk Y=CTS_1 
XPLACEDFE_OFC110_pe_in_pk_wrb_addr__1 CLKINVX2TR $PINS A=wrb_addr<1> Y=n24 
XPLACEDFE_OFC95_n55 CLKBUFX2TR $PINS A=n55 Y=FE_OFN54_n55 
XPLACEDFE_OFC92_n58 CLKBUFX2TR $PINS A=n58 Y=FE_OFN53_n58 
XPLACEDFE_OFC90_n31 INVX2TR $PINS A=n31 Y=n44 
XPLACEDFE_OFC84_pe_in_pk_wrb_addr__2 CLKINVX2TR $PINS A=wrb_addr<2> Y=n17 
XPLACEDFE_OFC79_n16 INVX2TR $PINS A=FE_OFN40_n16 Y=n41 
XPLACEDFE_OFC78_n16 CLKBUFX2TR $PINS A=n16 Y=FE_OFN40_n16 
XPLACEDFE_OFC74_n1 CLKBUFX2TR $PINS A=FE_OFN25_FE_DBTN7_n1 Y=FE_DBTN7_n1 
XPLACEDFE_OFC73_n1 CLKINVX4TR $PINS A=n1 Y=FE_OFN25_FE_DBTN7_n1 
XPLACEDFE_OFC72_pe_in_pk_rdb_addr__0 CLKINVX2TR $PINS A=rdb_addr<0> Y=n61 
XPLACEDFE_OFC62_reset CLKINVX2TR $PINS A=reset Y=FE_DBTN9_reset 
XPLACEDFE_OFC61_reset CLKINVX2TR $PINS A=reset Y=FE_OFN24_FE_DBTN9_reset 
XPLACEDFE_OFC49_pe_in_pk_rdb_addr__1 CLKINVX2TR $PINS A=rdb_addr<1> Y=n59 
Xclk_r_REG661_S1 DFFQX1TR $PINS D=n178 CK=CTS_1 Q=n284 
Xclk_r_REG660_S1 DFFQX1TR $PINS D=n177 CK=clk_clone1 Q=n283 
Xclk_r_REG659_S1 DFFQX1TR $PINS D=n176 CK=clk_clone2 Q=n282 
Xclk_r_REG658_S1 DFFQX1TR $PINS D=n175 CK=CTS_1 Q=n281 
Xclk_r_REG657_S1 DFFQX1TR $PINS D=n174 CK=clk_clone2 Q=n280 
Xclk_r_REG656_S1 DFFQX1TR $PINS D=n173 CK=clk_clone2 Q=n279 
Xclk_r_REG674_S1 DFFQX1TR $PINS D=n172 CK=CTS_1 Q=n278 
Xclk_r_REG673_S1 DFFQX1TR $PINS D=n171 CK=clk_clone2 Q=n277 
Xclk_r_REG672_S1 DFFQX1TR $PINS D=n170 CK=CTS_1 Q=n276 
Xclk_r_REG702_S1 DFFQX1TR $PINS D=n166 CK=clk_clone1 Q=n272 
Xclk_r_REG700_S1 DFFQX1TR $PINS D=n164 CK=CTS_1 Q=n270 
Xclk_r_REG699_S1 DFFQX1TR $PINS D=n163 CK=CTS_1 Q=n269 
Xclk_r_REG698_S1 DFFQX1TR $PINS D=n162 CK=clk_clone2 Q=n268 
Xclk_r_REG697_S1 DFFQX1TR $PINS D=n161 CK=clk_clone2 Q=n267 
Xclk_r_REG713_S1 DFFQX1TR $PINS D=n157 CK=clk_clone1 Q=n263 
Xclk_r_REG711_S1 DFFQX1TR $PINS D=n155 CK=CTS_1 Q=n261 
Xclk_r_REG710_S1 DFFQX1TR $PINS D=n154 CK=CTS_1 Q=n260 
Xclk_r_REG709_S1 DFFQX1TR $PINS D=n153 CK=clk_clone2 Q=n259 
Xclk_r_REG708_S1 DFFQX1TR $PINS D=n152 CK=clk_clone2 Q=n258 
Xclk_r_REG727_S1 DFFQX1TR $PINS D=n151 CK=CTS_1 Q=n257 
Xclk_r_REG724_S1 DFFQX1TR $PINS D=n148 CK=clk_clone1 Q=n254 
Xclk_r_REG722_S1 DFFQX1TR $PINS D=n146 CK=CTS_1 Q=n252 
Xclk_r_REG721_S1 DFFQX1TR $PINS D=n145 CK=CTS_1 Q=n251 
Xclk_r_REG720_S1 DFFQX1TR $PINS D=n144 CK=CTS_1 Q=n250 
Xclk_r_REG719_S1 DFFQX1TR $PINS D=n143 CK=clk_clone2 Q=n249 
Xclk_r_REG738_S1 DFFQX1TR $PINS D=n142 CK=clk_clone1 Q=n248 
Xclk_r_REG735_S1 DFFQX1TR $PINS D=n139 CK=clk_clone1 Q=n245 
Xclk_r_REG733_S1 DFFQX1TR $PINS D=n137 CK=CTS_1 Q=n243 
Xclk_r_REG732_S1 DFFQX1TR $PINS D=n136 CK=CTS_1 Q=n242 
Xclk_r_REG731_S1 DFFQX1TR $PINS D=n135 CK=clk_clone2 Q=n241 
Xclk_r_REG730_S1 DFFQX1TR $PINS D=n134 CK=clk_clone2 Q=n240 
Xclk_r_REG749_S1 DFFQX1TR $PINS D=n133 CK=clk_clone1 Q=n239 
Xclk_r_REG747_S1 DFFQX1TR $PINS D=n131 CK=CTS_1 Q=n237 
Xclk_r_REG746_S1 DFFQX1TR $PINS D=n130 CK=clk_clone1 Q=n236 
Xclk_r_REG745_S1 DFFQX1TR $PINS D=n129 CK=CTS_1 Q=n235 
Xclk_r_REG744_S1 DFFQX1TR $PINS D=n128 CK=CTS_1 Q=n234 
Xclk_r_REG743_S1 DFFQX1TR $PINS D=n127 CK=CTS_1 Q=n233 
Xclk_r_REG742_S1 DFFQX1TR $PINS D=n126 CK=clk_clone2 Q=n232 
Xclk_r_REG741_S1 DFFQX1TR $PINS D=n125 CK=clk_clone2 Q=n231 
Xclk_r_REG760_S1 DFFQX1TR $PINS D=n124 CK=CTS_1 Q=n230 
Xclk_r_REG759_S1 DFFQX1TR $PINS D=n123 CK=clk_clone1 Q=n229 
Xclk_r_REG758_S1 DFFQX1TR $PINS D=n122 CK=CTS_1 Q=n228 
Xclk_r_REG757_S1 DFFQX1TR $PINS D=n121 CK=clk_clone1 Q=n227 
Xclk_r_REG756_S1 DFFQX1TR $PINS D=n120 CK=CTS_1 Q=n226 
Xclk_r_REG755_S1 DFFQX1TR $PINS D=n119 CK=CTS_1 Q=n225 
Xclk_r_REG754_S1 DFFQX1TR $PINS D=n118 CK=CTS_1 Q=n224 
Xclk_r_REG753_S1 DFFQX1TR $PINS D=n117 CK=clk_clone2 Q=n223 
Xclk_r_REG752_S1 DFFQX1TR $PINS D=n116 CK=clk_clone2 Q=n222 
Xclk_r_REG677_S1 DFFQX1TR $PINS D=n109 CK=CTS_1 Q=n215 
Xclk_r_REG688_S1 DFFQX1TR $PINS D=n100 CK=CTS_1 Q=n206 
Xclk_r_REG687_S1 DFFQX1TR $PINS D=n99 CK=clk_clone2 Q=n205 
Xclk_r_REG686_S1 DFFQX1TR $PINS D=n98 CK=clk_clone2 Q=n204 
Xclk_r_REG706_S2 DFFQX1TR $PINS D=n307 CK=CTS_1 Q=n202 
Xclk_r_REG707_S2 DFFQX1TR $PINS D=n309 CK=CTS_1 Q=n201 
Xclk_r_REG718_S2 DFFQX1TR $PINS D=n305 CK=CTS_1 Q=n199 
Xclk_r_REG728_S2 DFFQX1TR $PINS D=n300 CK=CTS_1 Q=n198 
Xclk_r_REG729_S2 DFFQX1TR $PINS D=n302 CK=CTS_1 Q=n197 
Xclk_r_REG739_S2 DFFQX1TR $PINS D=n297 CK=clk_clone1 Q=n196 
Xclk_r_REG740_S2 DFFQX1TR $PINS D=n299 CK=CTS_1 Q=n195 
Xclk_r_REG751_S2 DFFQX1TR $PINS D=n296 CK=clk_clone1 Q=n193 
Xclk_r_REG761_S2 DFFQX1TR $PINS D=n291 CK=clk_clone1 Q=n192 
Xclk_r_REG762_S2 DFFQX1TR $PINS D=n293 CK=CTS_1 Q=n191 
Xclk_r_REG685_S2 DFFQX1TR $PINS D=n290 CK=CTS_1 Q=n189 
Xclk_r_REG695_S2 DFFQX1TR $PINS D=n285 CK=CTS_1 Q=n188 
Xclk_r_REG696_S2 DFFQX1TR $PINS D=n287 CK=CTS_1 Q=n187 
Xclk_r_REG671_S2 DFFQX1TR $PINS D=n306 CK=clk_clone1 Q=n203 
Xclk_r_REG714_S1 DFFQX1TR $PINS D=n158 CK=CTS_1 Q=n264 
Xclk_r_REG750_S2 DFFQX1TR $PINS D=n294 CK=clk_clone1 Q=n194 
Xclk_r_REG705_S1 DFFQX1TR $PINS D=n169 CK=CTS_1 Q=n275 
Xclk_r_REG716_S1 DFFQX1TR $PINS D=n160 CK=CTS_1 Q=n266 
Xclk_r_REG669_S2 DFFQX1TR $PINS D=n304 CK=CTS_1 Q=n181 
Xclk_r_REG683_S1 DFFQX1TR $PINS D=n115 CK=CTS_1 Q=n221 
Xclk_r_REG680_S1 DFFQX1TR $PINS D=n112 CK=clk_clone1 Q=n218 
Xclk_r_REG678_S1 DFFQX1TR $PINS D=n110 CK=CTS_1 Q=n216 
Xclk_r_REG694_S1 DFFQX1TR $PINS D=n106 CK=CTS_1 Q=n212 
Xclk_r_REG691_S1 DFFQX1TR $PINS D=n103 CK=clk_clone1 Q=n209 
Xclk_r_REG689_S1 DFFQX1TR $PINS D=n101 CK=CTS_1 Q=n207 
Xclk_r_REG681_S1 DFFQX1TR $PINS D=n113 CK=CTS_1 Q=n219 
Xclk_r_REG675_S1 DFFQX1TR $PINS D=n107 CK=clk_clone2 Q=n213 
Xclk_r_REG692_S1 DFFQX1TR $PINS D=n104 CK=CTS_1 Q=n210 
Xclk_r_REG703_S1 DFFQX1TR $PINS D=n167 CK=CTS_1 Q=n273 
Xclk_r_REG725_S1 DFFQX1TR $PINS D=n149 CK=CTS_1 Q=n255 
Xclk_r_REG736_S1 DFFQX1TR $PINS D=n140 CK=clk_clone2 Q=n246 
Xclk_r_REG665_S2 DFFQX1TR $PINS D=n292 CK=clk_clone1 Q=n186 
Xclk_r_REG717_S2 DFFQX1TR $PINS D=n303 CK=CTS_1 Q=n200 
Xclk_r_REG670_S2 DFFQX1TR $PINS D=n308 CK=CTS_1 Q=n182 
Xclk_r_REG712_S1 DFFQX1TR $PINS D=n156 CK=CTS_1 Q=n262 
Xclk_r_REG684_S2 DFFQX1TR $PINS D=n288 CK=CTS_1 Q=n190 
Xclk_r_REG748_S1 DFFQX1TR $PINS D=n132 CK=clk_clone1 Q=n238 
Xclk_r_REG668_S2 DFFQX1TR $PINS D=n301 CK=CTS_1 Q=n180 
Xclk_r_REG667_S2 DFFQX1TR $PINS D=n298 CK=clk_clone1 Q=n179 
Xclk_r_REG662_S2 DFFQX1TR $PINS D=n286 CK=CTS_1 Q=n184 
Xclk_r_REG666_S2 DFFQX1TR $PINS D=n295 CK=clk_clone1 Q=n183 
Xclk_r_REG664_S2 DFFQX1TR $PINS D=n289 CK=CTS_1 Q=n185 
Xclk_r_REG676_S1 DFFQX1TR $PINS D=n108 CK=clk_clone2 Q=n214 
Xclk_r_REG679_S1 DFFQX1TR $PINS D=n111 CK=CTS_1 Q=n217 
Xclk_r_REG690_S1 DFFQX1TR $PINS D=n102 CK=CTS_1 Q=n208 
Xclk_r_REG701_S1 DFFQX1TR $PINS D=n165 CK=clk_clone2 Q=n271 
Xclk_r_REG723_S1 DFFQX1TR $PINS D=n147 CK=CTS_1 Q=n253 
Xclk_r_REG734_S1 DFFQX1TR $PINS D=n138 CK=clk_clone2 Q=n244 
Xclk_r_REG682_S1 DFFQX1TR $PINS D=n114 CK=CTS_1 Q=n220 
Xclk_r_REG693_S1 DFFQX1TR $PINS D=n105 CK=clk_clone1 Q=n211 
Xclk_r_REG704_S1 DFFQX1TR $PINS D=n168 CK=CTS_1 Q=n274 
Xclk_r_REG715_S1 DFFQX1TR $PINS D=n159 CK=clk_clone1 Q=n265 
Xclk_r_REG726_S1 DFFQX1TR $PINS D=n150 CK=CTS_1 Q=n256 
Xclk_r_REG737_S1 DFFQX1TR $PINS D=n141 CK=clk_clone1 Q=n247 
XU3 AOI22X1TR $PINS A0=n96 A1=n221 B0=n95 B1=n91 Y=n289 
XU4 INVX2TR $PINS A=n12 Y=n46 
XU6 OAI31X4TR $PINS A0=wrb_addr<0> A1=n27 A2=n26 B0=FE_OFN24_FE_DBTN9_reset 
+ Y=n28 
XU11 NOR2X2TR $PINS A=rdb_addr<0> B=rdb_addr<1> Y=n55 
XU19 NOR2X1TR $PINS A=n61 B=n59 Y=n60 
XU22 NAND4X1TR $PINS A=n55 B=n278 C=rdb_addr<3> D=FE_DBTN9_reset Y=n57 
XU23 NAND3X1TR $PINS A=wrb B=wrb_addr<0> C=n30 Y=n15 
XU24 NAND2X1TR $PINS A=wrb B=n30 Y=n27 
XU27 INVX2TR $PINS A=wrb_addr<3> Y=n30 
XU28 OR2X1TR $PINS A=rdb_addr<3> B=reset Y=n68 
XU30 NOR2X1TR $PINS A=rdb_addr<2> B=n57 Y=n96 
XU31 OR2X2TR $PINS A=rdb_addr<1> B=n61 Y=n1 
XU32 NOR2BX2TR $PINS AN=wrb_data<2> B=FE_OFN7_reset Y=n34 
XU33 NOR2BX2TR $PINS AN=wrb_data<3> B=reset Y=n35 
XU34 NOR2BX2TR $PINS AN=wrb_data<4> B=FE_OFN7_reset Y=n36 
XU35 NOR2BX2TR $PINS AN=wrb_data<5> B=reset Y=n37 
XU36 NOR2BX2TR $PINS AN=wrb_data<6> B=FE_OFN7_reset Y=n38 
XU37 NOR2BX2TR $PINS AN=wrb_data<7> B=FE_OFN7_reset Y=n39 
XU38 OAI2BB1X2TR $PINS A0N=n55 A1N=n284 B0=n62 Y=n63 
XU39 AOI22X2TR $PINS A0=FE_OFN33_n60 A1=n276 B0=FE_OFN25_FE_DBTN7_n1 B1=n281 
+ Y=n62 
XU40 OAI2BB1X1TR $PINS A0N=n60 A1N=n280 B0=n64 Y=n65 
XU43 AOI211X1TR $PINS A0=n283 A1=n58 B0=n69 C0=n63 Y=n67 
XU44 OAI21X1TR $PINS A0=n20 A1=n15 B0=FE_OFN24_FE_DBTN9_reset Y=n16 
XU45 AOI32X4TR $PINS A0=n187 A1=n184 A2=n188 B0=n203 B1=n184 Y=data_out<0> 
XU46 AOI32X4TR $PINS A0=n201 A1=n182 A2=n202 B0=n203 B1=n182 Y=data_out<7> 
XU47 AOI32X4TR $PINS A0=n199 A1=n181 A2=n200 B0=n203 B1=n181 Y=data_out<6> 
XU48 AOI32X4TR $PINS A0=n197 A1=n180 A2=n198 B0=n203 B1=n180 Y=data_out<5> 
XU49 AOI32X4TR $PINS A0=n189 A1=n185 A2=n190 B0=n203 B1=n185 Y=data_out<1> 
XU50 AOI32X4TR $PINS A0=n193 A1=n183 A2=n194 B0=n203 B1=n183 Y=data_out<3> 
XU51 AOI32X4TR $PINS A0=n195 A1=n179 A2=n196 B0=n203 B1=n179 Y=data_out<4> 
XU52 AOI32X4TR $PINS A0=n191 A1=n186 A2=n192 B0=n203 B1=n186 Y=data_out<2> 
XU54 OAI31X4TR $PINS A0=wrb_addr<1> A1=n15 A2=wrb_addr<2> 
+ B0=FE_OFN24_FE_DBTN9_reset Y=n12 
XU55 NOR2BX2TR $PINS AN=wrb_data<0> B=FE_OFN7_reset Y=n32 
XU56 AO22X1TR $PINS A0=n12 A1=n32 B0=n46 B1=n204 Y=n98 
XU57 OAI31X4TR $PINS A0=wrb_addr<2> A1=n24 A2=n15 B0=FE_OFN24_FE_DBTN9_reset 
+ Y=n13 
XU58 INVX2TR $PINS A=n13 Y=n47 
XU59 AO22X1TR $PINS A0=n13 A1=n32 B0=n47 B1=n205 Y=n99 
XU60 OAI31X4TR $PINS A0=wrb_addr<1> A1=n17 A2=n15 B0=FE_OFN24_FE_DBTN9_reset 
+ Y=n14 
XU61 INVX2TR $PINS A=n14 Y=n48 
XU62 AO22X1TR $PINS A0=n14 A1=n32 B0=n48 B1=n206 Y=n100 
XU63 NAND2X1TR $PINS A=wrb_addr<1> B=wrb_addr<2> Y=n20 
XU65 AO22X1TR $PINS A0=FE_OFN40_n16 A1=n32 B0=n41 B1=n207 Y=n101 
XU66 NAND2BX1TR $PINS AN=wrb_addr<0> B=n17 Y=n22 
XU67 OAI31X4TR $PINS A0=n24 A1=n22 A2=n27 B0=FE_OFN24_FE_DBTN9_reset Y=n18 
XU68 INVX2TR $PINS A=n18 Y=n49 
XU69 AO22X1TR $PINS A0=n18 A1=n32 B0=n49 B1=n208 Y=n102 
XU70 NOR3X1TR $PINS A=wrb_addr<1> B=wrb_addr<2> C=wrb_addr<0> Y=n19 
XU71 OAI21X1TR $PINS A0=n19 A1=n30 B0=wrb Y=n29 
XU72 OAI31X4TR $PINS A0=wrb_addr<0> A1=n29 A2=n20 B0=FE_OFN24_FE_DBTN9_reset 
+ Y=n21 
XU74 INVX2TR $PINS A=n21 Y=n50 
XU75 AO22X1TR $PINS A0=n21 A1=n32 B0=n50 B1=n209 Y=n103 
XU76 OAI31X4TR $PINS A0=wrb_addr<1> A1=n27 A2=n22 B0=FE_OFN24_FE_DBTN9_reset 
+ Y=n23 
XU77 INVX2TR $PINS A=n23 Y=n43 
XU78 AO22X1TR $PINS A0=n23 A1=n32 B0=n43 B1=n210 Y=n104 
XU79 NAND2X1TR $PINS A=wrb_addr<2> B=n24 Y=n26 
XU80 INVX2TR $PINS A=n28 Y=n52 
XU81 AO22X1TR $PINS A0=n28 A1=n32 B0=n52 B1=n211 Y=n105 
XU82 OAI21X2TR $PINS A0=n30 A1=n29 B0=FE_OFN24_FE_DBTN9_reset Y=n31 
XU84 AO22X1TR $PINS A0=n31 A1=n32 B0=n44 B1=n212 Y=n106 
XU85 NOR2BX2TR $PINS AN=wrb_data<1> B=FE_OFN7_reset Y=n33 
XU86 AO22X1TR $PINS A0=n12 A1=n33 B0=n46 B1=n213 Y=n107 
XU87 AO22X1TR $PINS A0=n13 A1=n33 B0=n47 B1=n214 Y=n108 
XU88 AO22X1TR $PINS A0=n14 A1=n33 B0=n48 B1=n215 Y=n109 
XU89 AO22X1TR $PINS A0=FE_OFN40_n16 A1=n33 B0=n41 B1=n216 Y=n110 
XU90 AO22X1TR $PINS A0=n18 A1=n33 B0=n49 B1=n217 Y=n111 
XU91 AO22X1TR $PINS A0=n21 A1=n33 B0=n50 B1=n218 Y=n112 
XU92 AO22X1TR $PINS A0=n23 A1=n33 B0=n43 B1=n219 Y=n113 
XU93 AO22X1TR $PINS A0=n28 A1=n33 B0=n52 B1=n220 Y=n114 
XU94 AO22X1TR $PINS A0=n31 A1=n33 B0=n44 B1=n221 Y=n115 
XU95 AO22X1TR $PINS A0=n12 A1=n34 B0=n46 B1=n222 Y=n116 
XU96 AO22X1TR $PINS A0=n13 A1=n34 B0=n47 B1=n223 Y=n117 
XU97 AO22X1TR $PINS A0=n14 A1=n34 B0=n48 B1=n224 Y=n118 
XU98 AO22X1TR $PINS A0=FE_OFN40_n16 A1=n34 B0=n41 B1=n225 Y=n119 
XU99 AO22X1TR $PINS A0=n18 A1=n34 B0=n49 B1=n226 Y=n120 
XU100 AO22X1TR $PINS A0=n21 A1=n34 B0=n50 B1=n227 Y=n121 
XU101 AO22X1TR $PINS A0=n23 A1=n34 B0=n43 B1=n228 Y=n122 
XU102 AO22X1TR $PINS A0=n28 A1=n34 B0=n52 B1=n229 Y=n123 
XU103 AO22X1TR $PINS A0=n31 A1=n34 B0=n44 B1=n230 Y=n124 
XU104 AO22X1TR $PINS A0=n12 A1=n35 B0=n46 B1=n231 Y=n125 
XU105 AO22X1TR $PINS A0=n13 A1=n35 B0=n47 B1=n232 Y=n126 
XU106 AO22X1TR $PINS A0=n14 A1=n35 B0=n48 B1=n233 Y=n127 
XU107 AO22X1TR $PINS A0=FE_OFN40_n16 A1=n35 B0=n41 B1=n234 Y=n128 
XU108 AO22X1TR $PINS A0=n18 A1=n35 B0=n49 B1=n235 Y=n129 
XU109 AO22X1TR $PINS A0=n21 A1=n35 B0=n50 B1=n236 Y=n130 
XU110 AO22X1TR $PINS A0=n23 A1=n35 B0=n43 B1=n237 Y=n131 
XU111 AO22X1TR $PINS A0=n28 A1=n35 B0=n52 B1=n238 Y=n132 
XU112 AO22X1TR $PINS A0=n31 A1=n35 B0=n44 B1=n239 Y=n133 
XU113 AO22X1TR $PINS A0=n12 A1=n36 B0=n46 B1=n240 Y=n134 
XU114 AO22X1TR $PINS A0=n13 A1=n36 B0=n47 B1=n241 Y=n135 
XU115 AO22X1TR $PINS A0=n14 A1=n36 B0=n48 B1=n242 Y=n136 
XU116 AO22X1TR $PINS A0=FE_OFN40_n16 A1=n36 B0=n41 B1=n243 Y=n137 
XU117 AO22X1TR $PINS A0=n18 A1=n36 B0=n49 B1=n244 Y=n138 
XU118 AO22X1TR $PINS A0=n21 A1=n36 B0=n50 B1=n245 Y=n139 
XU119 AO22X1TR $PINS A0=n23 A1=n36 B0=n43 B1=n246 Y=n140 
XU120 AO22X1TR $PINS A0=n28 A1=n36 B0=n52 B1=n247 Y=n141 
XU121 AO22X1TR $PINS A0=n31 A1=n36 B0=n44 B1=n248 Y=n142 
XU122 AO22X1TR $PINS A0=n12 A1=n37 B0=n46 B1=n249 Y=n143 
XU123 AO22X1TR $PINS A0=n13 A1=n37 B0=n47 B1=n250 Y=n144 
XU124 AO22X1TR $PINS A0=n14 A1=n37 B0=n48 B1=n251 Y=n145 
XU125 AO22X1TR $PINS A0=FE_OFN40_n16 A1=n37 B0=n41 B1=n252 Y=n146 
XU126 AO22X1TR $PINS A0=n18 A1=n37 B0=n49 B1=n253 Y=n147 
XU127 AO22X1TR $PINS A0=n21 A1=n37 B0=n50 B1=n254 Y=n148 
XU128 AO22X1TR $PINS A0=n23 A1=n37 B0=n43 B1=n255 Y=n149 
XU129 AO22X1TR $PINS A0=n28 A1=n37 B0=n52 B1=n256 Y=n150 
XU130 AO22X1TR $PINS A0=n31 A1=n37 B0=n44 B1=n257 Y=n151 
XU131 AO22X1TR $PINS A0=n12 A1=n38 B0=n46 B1=n258 Y=n152 
XU132 AO22X1TR $PINS A0=n13 A1=n38 B0=n47 B1=n259 Y=n153 
XU133 AO22X1TR $PINS A0=n14 A1=n38 B0=n48 B1=n260 Y=n154 
XU134 AO22X1TR $PINS A0=FE_OFN40_n16 A1=n38 B0=n41 B1=n261 Y=n155 
XU135 AO22X1TR $PINS A0=n18 A1=n38 B0=n49 B1=n262 Y=n156 
XU136 AO22X1TR $PINS A0=n21 A1=n38 B0=n50 B1=n263 Y=n157 
XU137 AO22X1TR $PINS A0=n23 A1=n38 B0=n43 B1=n264 Y=n158 
XU138 AO22X1TR $PINS A0=n28 A1=n38 B0=n52 B1=n265 Y=n159 
XU139 AO22X1TR $PINS A0=n31 A1=n38 B0=n44 B1=n266 Y=n160 
XU140 AO22X1TR $PINS A0=n12 A1=n39 B0=n46 B1=n267 Y=n161 
XU141 AO22X1TR $PINS A0=n13 A1=n39 B0=n47 B1=n268 Y=n162 
XU142 AO22X1TR $PINS A0=n14 A1=n39 B0=n48 B1=n269 Y=n163 
XU143 AO22X1TR $PINS A0=FE_OFN40_n16 A1=n39 B0=n41 B1=n270 Y=n164 
XU144 AO22X1TR $PINS A0=n18 A1=n39 B0=n49 B1=n271 Y=n165 
XU145 AO22X1TR $PINS A0=n21 A1=n39 B0=n50 B1=n272 Y=n166 
XU146 AO22X1TR $PINS A0=n23 A1=n39 B0=n43 B1=n273 Y=n167 
XU147 AO22X1TR $PINS A0=n28 A1=n39 B0=n52 B1=n274 Y=n168 
XU148 AO22X1TR $PINS A0=n31 A1=n39 B0=n44 B1=n275 Y=n169 
XU149 AO22X1TR $PINS A0=FE_OFN40_n16 A1=FE_DBTN9_reset B0=n41 B1=n276 Y=n170 
XU150 AO22X1TR $PINS A0=n23 A1=FE_OFN24_FE_DBTN9_reset B0=n43 B1=n277 Y=n171 
XU151 AO22X1TR $PINS A0=n31 A1=FE_DBTN9_reset B0=n44 B1=n278 Y=n172 
XU152 AO22X1TR $PINS A0=n12 A1=FE_OFN24_FE_DBTN9_reset B0=n46 B1=n279 Y=n173 
XU153 AO22X1TR $PINS A0=n13 A1=FE_OFN24_FE_DBTN9_reset B0=n47 B1=n280 Y=n174 
XU154 AO22X1TR $PINS A0=n14 A1=FE_DBTN9_reset B0=n48 B1=n281 Y=n175 
XU155 AO22X1TR $PINS A0=n18 A1=FE_OFN24_FE_DBTN9_reset B0=n49 B1=n282 Y=n176 
XU156 AO22X1TR $PINS A0=n21 A1=FE_DBTN9_reset B0=n50 B1=n283 Y=n177 
XU157 AO22X1TR $PINS A0=n28 A1=FE_DBTN9_reset B0=n52 B1=n284 Y=n178 
XU160 NOR2X1TR $PINS A=rdb_addr<0> B=n59 Y=n58 
XU161 AOI22X1TR $PINS A0=FE_OFN25_FE_DBTN7_n1 A1=n279 B0=n58 B1=n282 Y=n64 
XU162 AOI211X1TR $PINS A0=n55 A1=n277 B0=rdb_addr<2> C0=n65 Y=n66 
XU163 NOR3X2TR $PINS A=n68 B=n67 C=n66 Y=n82 
XU164 AND2X6TR $PINS A=n82 B=n69 Y=n95 
XU165 AOI22X1TR $PINS A0=FE_OFN33_n60 A1=n241 B0=FE_OFN25_FE_DBTN7_n1 B1=n240 
+ Y=n71 
XU166 AOI22X1TR $PINS A0=n55 A1=n246 B0=FE_OFN53_n58 B1=n244 Y=n70 
XU167 NAND2X1TR $PINS A=n71 B=n70 Y=n72 
XU168 AOI22X1TR $PINS A0=n96 A1=n248 B0=n95 B1=n72 Y=n298 
XU169 AOI22X1TR $PINS A0=FE_OFN33_n60 A1=n250 B0=FE_OFN25_FE_DBTN7_n1 B1=n249 
+ Y=n74 
XU170 AOI22X1TR $PINS A0=n55 A1=n255 B0=FE_OFN53_n58 B1=n253 Y=n73 
XU171 NAND2X1TR $PINS A=n74 B=n73 Y=n75 
XU172 AOI22X1TR $PINS A0=n96 A1=n257 B0=n95 B1=n75 Y=n301 
XU173 AOI22X1TR $PINS A0=FE_OFN33_n60 A1=n259 B0=FE_OFN25_FE_DBTN7_n1 B1=n258 
+ Y=n77 
XU174 AOI22X1TR $PINS A0=n55 A1=n264 B0=FE_OFN53_n58 B1=n262 Y=n76 
XU175 NAND2X1TR $PINS A=n77 B=n76 Y=n78 
XU176 AOI22X1TR $PINS A0=n96 A1=n266 B0=n95 B1=n78 Y=n304 
XU177 AOI22X1TR $PINS A0=FE_OFN33_n60 A1=n268 B0=FE_OFN25_FE_DBTN7_n1 B1=n267 
+ Y=n80 
XU178 AOI22X1TR $PINS A0=n55 A1=n273 B0=FE_OFN53_n58 B1=n271 Y=n79 
XU179 NAND2X1TR $PINS A=n80 B=n79 Y=n81 
XU180 AOI22X1TR $PINS A0=n96 A1=n275 B0=n95 B1=n81 Y=n308 
XU181 NAND2X1TR $PINS A=rdb_addr<2> B=n82 Y=n306 
XU182 AOI22X1TR $PINS A0=FE_OFN33_n60 A1=n232 B0=FE_OFN25_FE_DBTN7_n1 B1=n231 
+ Y=n84 
XU183 AOI22X1TR $PINS A0=n55 A1=n237 B0=FE_OFN53_n58 B1=n235 Y=n83 
XU184 NAND2X1TR $PINS A=n84 B=n83 Y=n85 
XU185 AOI22X1TR $PINS A0=n96 A1=n239 B0=n95 B1=n85 Y=n295 
XU186 AOI22X1TR $PINS A0=FE_OFN33_n60 A1=n205 B0=FE_OFN25_FE_DBTN7_n1 B1=n204 
+ Y=n87 
XU187 AOI22X1TR $PINS A0=n55 A1=n210 B0=FE_OFN53_n58 B1=n208 Y=n86 
XU188 NAND2X1TR $PINS A=n87 B=n86 Y=n88 
XU189 AOI22X1TR $PINS A0=n96 A1=n212 B0=n95 B1=n88 Y=n286 
XU190 AOI22X1TR $PINS A0=FE_OFN33_n60 A1=n214 B0=FE_OFN25_FE_DBTN7_n1 B1=n213 
+ Y=n90 
XU191 AOI22X1TR $PINS A0=n55 A1=n219 B0=FE_OFN53_n58 B1=n217 Y=n89 
XU192 NAND2X1TR $PINS A=n90 B=n89 Y=n91 
XU193 AOI22X1TR $PINS A0=FE_OFN33_n60 A1=n223 B0=FE_OFN25_FE_DBTN7_n1 B1=n222 
+ Y=n93 
XU194 AOI22X1TR $PINS A0=n55 A1=n228 B0=FE_OFN53_n58 B1=n226 Y=n92 
XU195 NAND2X1TR $PINS A=n93 B=n92 Y=n94 
XU196 AOI22X1TR $PINS A0=n96 A1=n230 B0=n95 B1=n94 Y=n292 
XU197 AOI22X1TR $PINS A0=FE_OFN58_n60 A1=n207 B0=FE_OFN25_FE_DBTN7_n1 B1=n206 
+ Y=n287 
XU198 AOI22X1TR $PINS A0=FE_OFN54_n55 A1=n211 B0=n58 B1=n209 Y=n285 
XU199 AOI22X1TR $PINS A0=FE_OFN58_n60 A1=n216 B0=FE_DBTN7_n1 B1=n215 Y=n290 
XU200 AOI22X1TR $PINS A0=FE_OFN54_n55 A1=n220 B0=FE_OFN53_n58 B1=n218 Y=n288 
XU201 AOI22X1TR $PINS A0=FE_OFN58_n60 A1=n225 B0=FE_DBTN7_n1 B1=n224 Y=n293 
XU202 AOI22X1TR $PINS A0=FE_OFN54_n55 A1=n229 B0=FE_OFN53_n58 B1=n227 Y=n291 
XU203 AOI22X1TR $PINS A0=FE_OFN58_n60 A1=n234 B0=FE_DBTN7_n1 B1=n233 Y=n296 
XU204 AOI22X1TR $PINS A0=FE_OFN54_n55 A1=n238 B0=FE_OFN53_n58 B1=n236 Y=n294 
XU205 AOI22X1TR $PINS A0=FE_OFN58_n60 A1=n243 B0=FE_DBTN7_n1 B1=n242 Y=n299 
XU206 AOI22X1TR $PINS A0=FE_OFN54_n55 A1=n247 B0=FE_OFN53_n58 B1=n245 Y=n297 
XU207 AOI22X1TR $PINS A0=FE_OFN58_n60 A1=n252 B0=FE_DBTN7_n1 B1=n251 Y=n302 
XU208 AOI22X1TR $PINS A0=FE_OFN54_n55 A1=n256 B0=FE_OFN53_n58 B1=n254 Y=n300 
XU209 AOI22X1TR $PINS A0=FE_OFN58_n60 A1=n261 B0=FE_DBTN7_n1 B1=n260 Y=n305 
XU210 AOI22X1TR $PINS A0=FE_OFN54_n55 A1=n265 B0=FE_OFN53_n58 B1=n263 Y=n303 
XU211 AOI22X1TR $PINS A0=FE_OFN58_n60 A1=n270 B0=FE_OFN25_FE_DBTN7_n1 B1=n269 
+ Y=n309 
XU212 AOI22X1TR $PINS A0=FE_OFN54_n55 A1=n274 B0=FE_OFN53_n58 B1=n272 Y=n307 
XU16 INVX1TR $PINS A=rdb_addr<2> Y=n69 
.ENDS

.SUBCKT MULT_single_3 reset A<7> A<6> A<5> A<4> A<3> A<2> A<1> A<0> B<7> B<6> 
+ B<5> B<4> B<3> B<2> B<1> B<0> data_out<7> data_out<6> data_out<5> data_out<4> 
+ data_out<3> data_out<2> data_out<1> data_out<0> clk_clone2 clk_clone1 clk 
Xclk_r_REG663_S3 DFFQX1TR $PINS D=B<0> CK=clk_clone2 Q=n254 
Xclk_r_REG654_S2 DFFQX1TR $PINS D=n265 CK=clk_clone2 Q=n253 
Xclk_r_REG640_S2 DFFQX1TR $PINS D=n155 CK=clk_clone2 Q=n250 
Xclk_r_REG625_S2 DFFQX1TR $PINS D=n156 CK=clk Q=n249 
Xclk_r_REG645_S3 DFFQX4TR $PINS D=n260 CK=clk_clone2 Q=n246 
Xclk_r_REG616_S3 DFFQX4TR $PINS D=n261 CK=clk_clone2 Q=n236 
Xclk_r_REG604_S2 DFFQX1TR $PINS D=n181 CK=clk_clone2 Q=n234 
Xclk_r_REG608_S2 DFFQX1TR $PINS D=n180 CK=clk_clone1 Q=n233 
Xclk_r_REG613_S2 DFFQX1TR $PINS D=n182 CK=clk_clone2 Q=n232 
Xclk_r_REG618_S2 DFFQX1TR $PINS D=n179 CK=clk_clone1 Q=n231 
Xclk_r_REG621_S2 DFFQX1TR $PINS D=n264 CK=clk_clone2 Q=n229 
Xclk_r_REG651_S2 DFFQX1TR $PINS D=n161 CK=clk Q=n228 
Xclk_r_REG617_S3 DFFQX1TR $PINS D=n256 CK=clk_clone2 Q=n225 
Xclk_r_REG643_S2 DFFQX1TR $PINS D=n176 CK=clk_clone2 Q=n224 
Xclk_r_REG623_S2 DFFQX1TR $PINS D=n154 CK=clk_clone2 Q=n222 
Xclk_r_REG644_S2 DFFQX1TR $PINS D=n177 CK=clk_clone2 Q=n221 
Xclk_r_REG627_S2 DFFQX1TR $PINS D=n168 CK=clk Q=n216 
Xclk_r_REG636_S2 DFFQX1TR $PINS D=n145 CK=clk Q=n214 
Xclk_r_REG649_S2 DFFQX1TR $PINS D=n171 CK=clk Q=n212 
Xclk_r_REG646_S2 DFFQX1TR $PINS D=n174 CK=clk_clone1 Q=n211 
Xclk_r_REG647_S2 DFFQX1TR $PINS D=n175 CK=clk_clone2 Q=n210 
Xclk_r_REG648_S2 DFFQX1TR $PINS D=n173 CK=clk Q=n209 
Xclk_r_REG630_S2 DFFQX1TR $PINS D=n184 CK=clk Q=n207 
Xclk_r_REG638_S2 DFFQX1TR $PINS D=n169 CK=clk_clone2 Q=n206 
Xclk_r_REG652_S2 DFFQX1TR $PINS D=n170 CK=clk_clone2 Q=n203 
Xclk_r_REG763_S1 DFFQX1TR $PINS D=reset CK=clk_clone2 Q=n255 
Xclk_r_REG764_S2 DFFQX1TR $PINS D=n255 CK=clk_clone2 Q=n251 
Xclk_r_REG610_S3 DFFQX1TR $PINS D=n259 CK=clk_clone1 Q=n240 
Xclk_r_REG612_S3 DFFQX1TR $PINS D=n147 CK=clk_clone1 Q=n235 
Xclk_r_REG622_S3 DFFQX1TR $PINS D=n202 CK=clk_clone2 Q=n252 
Xclk_r_REG615_S3 DFFQX1TR $PINS D=n263 CK=clk_clone2 Q=n247 
Xclk_r_REG602_S3 DFFQX1TR $PINS D=n164 CK=clk Q=n244 
Xclk_r_REG601_S3 DFFQX1TR $PINS D=n80 CK=clk_clone1 Q=n243 
Xclk_r_REG611_S3 DFFQX1TR $PINS D=n148 CK=clk_clone1 Q=n242 
Xclk_r_REG606_S3 DFFQX1TR $PINS D=n150 CK=clk_clone1 Q=n239 
Xclk_r_REG607_S3 DFFQX1TR $PINS D=n151 CK=clk_clone1 Q=n238 
Xclk_r_REG600_S3 DFFQX1TR $PINS D=n165 CK=clk_clone1 Q=n227 
Xclk_r_REG620_S3 DFFQX1TR $PINS D=n79 CK=clk_clone1 Q=n226 
Xclk_r_REG632_S2 DFFQX1TR $PINS D=n187 CK=clk Q=n220 
Xclk_r_REG635_S2 DFFQX1TR $PINS D=n185 CK=clk_clone2 Q=n218 
Xclk_r_REG605_S3 DFFQX1TR $PINS D=n257 CK=clk_clone2 Q=n237 
Xclk_r_REG633_S2 DFFQX1TR $PINS D=n186 CK=clk Q=n219 
Xclk_r_REG628_S2 DFFQX1TR $PINS D=n167 CK=clk Q=n215 
Xclk_r_REG614_S3 DFFQX2TR $PINS D=n262 CK=clk_clone2 Q=n248 
Xclk_r_REG619_S2 DFFQX1TR $PINS D=n178 CK=clk_clone1 Q=n230 
Xclk_r_REG650_S2 DFFQX1TR $PINS D=n172 CK=clk_clone1 Q=n208 
Xclk_r_REG609_S3 DFFQX1TR $PINS D=n258 CK=clk_clone1 Q=n241 
Xclk_r_REG629_S2 DFFQX1TR $PINS D=n166 CK=clk Q=n204 
Xclk_r_REG599_S2 DFFQX1TR $PINS D=n162 CK=clk_clone1 Q=n205 
Xclk_r_REG637_S2 DFFQX1TR $PINS D=n188 CK=clk Q=n213 
Xclk_r_REG634_S2 DFFQX1TR $PINS D=n146 CK=clk Q=n223 
Xclk_r_REG603_S3 DFFQX1TR $PINS D=n158 CK=clk_clone1 Q=n245 
XU1 AOI22X1TR $PINS A0=A<5> A1=n152 B0=B<4> B1=n138 Y=n137 
XU2 INVX2TR $PINS A=B<0> Y=n193 
XU4 INVX2TR $PINS A=B<4> Y=n152 
XU5 INVX2TR $PINS A=B<2> Y=n129 
XU8 XNOR2X1TR $PINS A=n70 B=n69 Y=n72 
XU9 INVX2TR $PINS A=n219 Y=n18 
XU10 INVX2TR $PINS A=n111 Y=n71 
XU11 AOI21X1TR $PINS A0=n212 A1=n217 B0=n19 Y=n11 
XU12 OAI21X1TR $PINS A0=n68 A1=n239 B0=n238 Y=n70 
XU13 AND2X4TR $PINS A=n55 B=n54 Y=data_out<1> 
XU14 NAND2X1TR $PINS A=n244 B=n227 Y=n107 
XU15 XOR2X1TR $PINS A=n85 B=n84 Y=n86 
XU16 OR2X2TR $PINS A=n251 B=n255 Y=n111 
XU17 CLKINVX2TR $PINS A=n75 Y=data_out<0> 
XU18 OA21XLTR $PINS A0=n45 A1=n222 B0=n44 Y=n202 
XU19 AO21X1TR $PINS A0=n27 A1=n197 B0=n119 Y=n161 
XU20 CLKINVX2TR $PINS A=A<0> Y=n81 
XU21 INVX1TR $PINS A=n27 Y=n265 
XU22 NAND2X1TR $PINS A=n6 B=n5 Y=n4 
XU23 OAI211X1TR $PINS A0=n144 A1=n81 B0=A<1> C0=n193 Y=n154 
XU24 INVX1TR $PINS A=n260 Y=n95 
XU25 OR2X2TR $PINS A=A<2> B=A<1> Y=n113 
XU26 INVX2TR $PINS A=B<1> Y=n144 
XU27 INVX1TR $PINS A=A<1> Y=n50 
XU29 NAND2X1TR $PINS A=n61 B=n60 Y=n64 
XU30 XOR2X1TR $PINS A=n109 B=n66 Y=n67 
XU31 NOR3X1TR $PINS A=n247 B=n248 C=n252 Y=n73 
XU32 NOR2X1TR $PINS A=n235 B=n58 Y=n24 
XU33 XNOR2X1TR $PINS A=n21 B=n20 Y=n158 
XU34 XNOR2X1TR $PINS A=n17 B=n16 Y=n21 
XU35 NOR3X4TR $PINS A=n248 B=n246 C=n236 Y=n51 
XU36 CLKINVX2TR $PINS A=n235 Y=n7 
XU37 NOR2BX1TR $PINS AN=n107 B=n108 Y=n66 
XU38 XOR2X1TR $PINS A=n231 B=n87 Y=n10 
XU39 XOR2X1TR $PINS A=n9 B=n211 Y=n87 
XU40 AND2X4TR $PINS A=n23 B=n84 Y=n57 
XU41 NOR2X2TR $PINS A=n67 B=n111 Y=data_out<6> 
XU42 AOI21X1TR $PINS A0=n242 A1=n235 B0=n56 Y=n65 
XU43 NAND2BX1TR $PINS AN=n56 B=n62 Y=n3 
XU44 NOR2X1TR $PINS A=n243 B=n226 Y=n56 
XU45 AND2X2TR $PINS A=n233 B=n206 Y=n89 
XU47 INVX1TR $PINS A=B<7> Y=n49 
XU48 CLKINVX2TR $PINS A=n242 Y=n58 
XU49 NAND2X1TR $PINS A=n57 B=n7 Y=n6 
XU50 XNOR2X1TR $PINS A=n220 B=n15 Y=n16 
XU51 AOI22X1TR $PINS A0=A<3> A1=n139 B0=B<6> B1=n143 Y=n120 
XU52 XOR2X1TR $PINS A=n38 B=n37 Y=n47 
XU53 OAI21X1TR $PINS A0=n210 A1=n218 B0=n38 Y=n8 
XU54 XOR2X1TR $PINS A=n106 B=n94 Y=n97 
XU55 NOR2X1TR $PINS A=n32 B=n31 Y=n259 
XU56 AND2X1TR $PINS A=n232 B=n48 Y=n262 
XU57 CLKINVX1TR $PINS A=n114 Y=n30 
XU58 INVX1TR $PINS A=n121 Y=n77 
XU59 XOR2X1TR $PINS A=n100 B=n99 Y=n102 
XU60 AND2X6TR $PINS A=n2 B=n71 Y=data_out<5> 
XU61 XNOR2X2TR $PINS A=n4 B=n3 Y=n2 
XU62 AOI21X1TR $PINS A0=n59 A1=n7 B0=n58 Y=n5 
XU63 INVX1TR $PINS A=B<6> Y=n139 
XU64 AO21X1TR $PINS A0=n101 A1=n100 B0=n36 Y=n165 
XU65 NAND2X1TR $PINS A=n32 B=n31 Y=n258 
XU66 AOI2BB1X1TR $PINS A0N=n233 A1N=n206 B0=n89 Y=n38 
XU67 OAI2BB1X1TR $PINS A0N=n218 A1N=n210 B0=n8 Y=n32 
XU68 XOR2X1TR $PINS A=n223 B=n249 Y=n9 
XU69 XOR2X1TR $PINS A=n89 B=n10 Y=n31 
XU70 XOR2X1TR $PINS A=n215 B=n228 Y=n17 
XU71 OR2X2TR $PINS A=n213 B=n216 Y=n40 
XU72 INVX1TR $PINS A=n40 Y=n35 
XU73 NOR2X1TR $PINS A=n217 B=n212 Y=n19 
XU74 XOR2X1TR $PINS A=n11 B=n18 Y=n43 
XU75 INVX1TR $PINS A=n43 Y=n14 
XU76 AND2X2TR $PINS A=n230 B=n204 Y=n91 
XU77 OAI21X1TR $PINS A0=n205 A1=n208 B0=n91 Y=n12 
XU78 OAI2BB1X1TR $PINS A0N=n208 A1N=n205 B0=n12 Y=n41 
XU79 OAI21X1TR $PINS A0=n43 A1=n40 B0=n41 Y=n13 
XU80 OAI21X1TR $PINS A0=n35 A1=n14 B0=n13 Y=n15 
XU81 AOI32X1TR $PINS A0=n212 A1=n219 A2=n217 B0=n19 B1=n18 Y=n20 
XU82 OAI21X1TR $PINS A0=n240 A1=n238 B0=n241 Y=n59 
XU83 CLKINVX2TR $PINS A=n225 Y=n22 
XU84 OAI21X2TR $PINS A0=n51 A1=n237 B0=n22 Y=n84 
XU85 NOR2X1TR $PINS A=n240 B=n239 Y=n23 
XU86 NOR2X2TR $PINS A=n59 B=n57 Y=n25 
XU87 XOR2X1TR $PINS A=n25 B=n24 Y=n26 
XU88 NOR2X2TR $PINS A=n111 B=n26 Y=data_out<4> 
XU89 NAND2X1TR $PINS A=A<2> B=A<1> Y=n28 
XU90 OAI21X1TR $PINS A0=A<2> A1=A<1> B0=n28 Y=n27 
XU92 INVX2TR $PINS A=A<3> Y=n143 
XU93 AO22X1TR $PINS A0=A<3> A1=n113 B0=n28 B1=n143 Y=n197 
XU94 OAI22X1TR $PINS A0=n143 A1=n49 B0=B<7> B1=A<3> Y=n119 
XU95 NAND2X1TR $PINS A=A<5> B=A<6> Y=n29 
XU96 OAI21X1TR $PINS A0=A<5> A1=A<6> B0=n29 Y=n134 
XU97 INVX2TR $PINS A=A<7> Y=n125 
XU98 NOR3X1TR $PINS A=A<5> B=A<6> C=n125 Y=n114 
XU99 OAI31X1TR $PINS A0=n134 A1=n125 A2=B<0> B0=n30 Y=n166 
XU100 XOR2X1TR $PINS A=n208 B=n91 Y=n33 
XU101 XOR2X1TR $PINS A=n33 B=n205 Y=n101 
XU102 OAI21X1TR $PINS A0=n209 A1=n214 B0=n207 Y=n34 
XU103 OAI2BB1X1TR $PINS A0N=n214 A1N=n209 B0=n34 Y=n100 
XU105 AOI2BB1X1TR $PINS A0N=n101 A1N=n100 B0=n99 Y=n36 
XU106 XOR2X1TR $PINS A=n210 B=n218 Y=n37 
XU107 OAI21X1TR $PINS A0=n234 A1=n250 B0=n224 Y=n39 
XU108 OAI2BB1X1TR $PINS A0N=n250 A1N=n234 B0=n39 Y=n46 
XU109 NOR2X1TR $PINS A=n47 B=n46 Y=n150 
XU110 AOI2BB1X1TR $PINS A0N=n203 A1N=n221 B0=n260 Y=n48 
XU111 NOR2X1TR $PINS A=n232 B=n48 Y=n263 
XU112 XOR2X1TR $PINS A=n41 B=n40 Y=n42 
XU113 XOR2X1TR $PINS A=n43 B=n42 Y=n164 
XU114 AOI21X1TR $PINS A0=n253 A1=n254 B0=n229 Y=n45 
XU115 NAND3X1TR $PINS A=n254 B=n253 C=n229 Y=n44 
XU116 NOR2X1TR $PINS A=n263 B=n202 Y=n261 
XU117 NAND2X1TR $PINS A=n47 B=n46 Y=n151 
XU118 AOI32X1TR $PINS A0=B<7> A1=n50 A2=A<0> B0=n49 B1=A<1> Y=n162 
XU119 INVX1TR $PINS A=n255 Y=n55 
XU120 NOR2X1TR $PINS A=n225 B=n51 Y=n52 
XU121 XOR2X1TR $PINS A=n52 B=n237 Y=n53 
XU122 NOR2X2TR $PINS A=n53 B=n251 Y=n54 
XU123 NAND2X1TR $PINS A=n243 B=n226 Y=n62 
XU124 INVX2TR $PINS A=n57 Y=n61 
XU125 NOR2X1TR $PINS A=n59 B=n58 Y=n60 
XU126 CLKINVX2TR $PINS A=n62 Y=n63 
XU127 AOI21X2TR $PINS A0=n65 A1=n64 B0=n63 Y=n109 
XU128 NOR2X1TR $PINS A=n244 B=n227 Y=n108 
XU129 CLKINVX2TR $PINS A=n84 Y=n68 
XU130 NAND2BX1TR $PINS AN=n240 B=n241 Y=n69 
XU131 AND2X2TR $PINS A=n72 B=n71 Y=data_out<3> 
XU132 OA21X2TR $PINS A0=n247 A1=n248 B0=n252 Y=n74 
XU133 OR4X2TR $PINS A=n74 B=n73 C=n251 D=n255 Y=n75 
XU134 NAND2X1TR $PINS A=A<3> B=A<4> Y=n76 
XU135 OAI21X1TR $PINS A0=A<3> A1=A<4> B0=n76 Y=n191 
XU136 NOR3X1TR $PINS A=A<3> B=A<4> C=n138 Y=n121 
XU137 OAI31X1TR $PINS A0=n191 A1=n138 A2=B<0> B0=n77 Y=n169 
XU138 NAND2X1TR $PINS A=A<1> B=A<0> Y=n160 
XU139 NOR2X1TR $PINS A=A<1> B=n81 Y=n157 
XU140 AND2X2TR $PINS A=n81 B=A<1> Y=n153 
XU141 CLKINVX2TR $PINS A=B<3> Y=n123 
XU142 AOI22X1TR $PINS A0=B<4> A1=n157 B0=n153 B1=n123 Y=n82 
XU143 OAI21X1TR $PINS A0=B<4> A1=n160 B0=n82 Y=n181 
XU144 AOI22X1TR $PINS A0=n157 A1=B<2> B0=n153 B1=n144 Y=n83 
XU145 OAI21X1TR $PINS A0=B<2> A1=n160 B0=n83 Y=n264 
XU146 NAND2BX1TR $PINS AN=n239 B=n238 Y=n85 
XU147 NOR2X1TR $PINS A=n111 B=n86 Y=data_out<2> 
XU148 OAI21X1TR $PINS A0=n89 A1=n231 B0=n87 Y=n88 
XU149 OAI2BB1X1TR $PINS A0N=n231 A1N=n89 B0=n88 Y=n98 
XU150 XOR2X1TR $PINS A=n214 B=n207 Y=n90 
XU151 XOR2X1TR $PINS A=n209 B=n90 Y=n106 
XU152 AOI2BB1X1TR $PINS A0N=n204 A1N=n230 B0=n91 Y=n103 
XU153 OAI21X1TR $PINS A0=n223 A1=n249 B0=n211 Y=n93 
XU154 NAND2X1TR $PINS A=n223 B=n249 Y=n92 
XU155 NAND2X1TR $PINS A=n93 B=n92 Y=n105 
XU156 XOR2X1TR $PINS A=n103 B=n105 Y=n94 
XU157 NOR2X1TR $PINS A=n98 B=n97 Y=n147 
XU158 NOR3BX1TR $PINS AN=n232 B=n202 C=n95 Y=n256 
XU159 XOR2X1TR $PINS A=n250 B=n224 Y=n96 
XU160 XNOR2X1TR $PINS A=n96 B=n234 Y=n257 
XU161 NAND2X1TR $PINS A=n98 B=n97 Y=n148 
XU162 XNOR2X1TR $PINS A=n102 B=n101 Y=n80 
XU163 OAI21X1TR $PINS A0=n106 A1=n105 B0=n103 Y=n104 
XU164 OAI2BB1X1TR $PINS A0N=n106 A1N=n105 B0=n104 Y=n79 
XU165 OAI21X1TR $PINS A0=n109 A1=n108 B0=n107 Y=n110 
XU166 XOR2X1TR $PINS A=n110 B=n245 Y=n112 
XU167 NOR2X2TR $PINS A=n112 B=n111 Y=data_out<7> 
XU168 OAI32X1TR $PINS A0=n143 A1=B<0> A2=n27 B0=n113 B1=n143 Y=n170 
XU169 AOI31X1TR $PINS A0=A<6> A1=A<5> A2=n125 B0=n114 Y=n133 